/*---------------------------------------------------------------------------*\
  =========                 |
  \\      /  F ield         | OpenFOAM: The Open Source CFD Toolbox
   \\    /   O peration     | Website:  https://openfoam.org
    \\  /    A nd           | Version:  13
     \\/     M anipulation  |
\*---------------------------------------------------------------------------*/
Build  : 13-65eda17ad4ca
Exec   : foamRun
Date   : Oct 24 2025
Time   : 01:00:58
Host   : "LAPTOP-416UROR2"
PID    : 8601
I/O    : uncollated
Case   : /home/adisr/OpenFOAM-learning1/incompressibleFlow/01-cavity/meshChange/mesh80
nProcs : 1
sigFpe : Enabling floating point exception trapping (FOAM_SIGFPE).
fileModificationChecking : Monitoring run-time modified files using timeStampMaster (fileModificationSkew 10)
allowSystemOperations : Allowing user-supplied system call operations

// * * * * * * * * * * * * * * * * * * * * * * * * * * * * * * * * * * * * * //
Create time

Create mesh for time = 0

Selecting solver incompressibleFluid
Selecting viscosity model constant
Selecting turbulence model type RAS
    Selecting RAS turbulence model kEpsilon
No MRF models present

Courant Number mean: 0 max: 0

PIMPLE: No convergence criteria found


PIMPLE: Operating solver in transient mode with 1 outer corrector
PIMPLE: Operating solver in PISO mode



Starting time loop

Courant Number mean: 0 max: 0
Time = 0.005s

smoothSolver:  Solving for Ux, Initial residual = 1, Final residual = 9.9757e-06, No Iterations 18
smoothSolver:  Solving for Uy, Initial residual = 1, Final residual = 9.97138e-06, No Iterations 17
GAMG:  Solving for p, Initial residual = 1, Final residual = 0.0582914, No Iterations 2
time step continuity errors : sum local = 3.19519e-05, global = -2.43811e-20
GAMG:  Solving for p, Initial residual = 0.207769, Final residual = 5.42501e-07, No Iterations 10
time step continuity errors : sum local = 5.75391e-10, global = 4.03457e-21, cumulative = 4.03457e-21
smoothSolver:  Solving for epsilon, Initial residual = 0.0589451, Final residual = 8.82779e-06, No Iterations 10
smoothSolver:  Solving for k, Initial residual = 1, Final residual = 5.77647e-06, No Iterations 18
ExecutionTime = 0.255063 s  ClockTime = 0 s

Courant Number mean: 0.00728902 max: 0.243048
Time = 0.01s

smoothSolver:  Solving for Ux, Initial residual = 0.401488, Final residual = 7.69633e-06, No Iterations 16
smoothSolver:  Solving for Uy, Initial residual = 0.422518, Final residual = 9.6357e-06, No Iterations 16
GAMG:  Solving for p, Initial residual = 0.739141, Final residual = 0.0337624, No Iterations 2
time step continuity errors : sum local = 3.70248e-05, global = -2.34919e-20
GAMG:  Solving for p, Initial residual = 0.264058, Final residual = 7.86649e-07, No Iterations 12
time step continuity errors : sum local = 3.24633e-10, global = -6.75493e-21, cumulative = -2.72037e-21
smoothSolver:  Solving for epsilon, Initial residual = 0.0106235, Final residual = 5.4576e-06, No Iterations 8
smoothSolver:  Solving for k, Initial residual = 0.435388, Final residual = 5.52794e-06, No Iterations 16
ExecutionTime = 0.275604 s  ClockTime = 0 s

Courant Number mean: 0.0140778 max: 0.373051
Time = 0.015s

smoothSolver:  Solving for Ux, Initial residual = 0.159706, Final residual = 6.83151e-06, No Iterations 14
smoothSolver:  Solving for Uy, Initial residual = 0.172597, Final residual = 6.93257e-06, No Iterations 15
GAMG:  Solving for p, Initial residual = 0.471559, Final residual = 0.0217154, No Iterations 2
time step continuity errors : sum local = 8.12156e-06, global = -7.85822e-22
GAMG:  Solving for p, Initial residual = 0.0984405, Final residual = 7.14247e-07, No Iterations 12
time step continuity errors : sum local = 2.87481e-10, global = 4.34528e-21, cumulative = 1.62492e-21
smoothSolver:  Solving for epsilon, Initial residual = 0.0108089, Final residual = 5.86813e-06, No Iterations 8
smoothSolver:  Solving for k, Initial residual = 0.226897, Final residual = 5.95127e-06, No Iterations 15
ExecutionTime = 0.297405 s  ClockTime = 0 s

Courant Number mean: 0.0203386 max: 0.553504
Time = 0.02s

smoothSolver:  Solving for Ux, Initial residual = 0.135375, Final residual = 8.65063e-06, No Iterations 14
smoothSolver:  Solving for Uy, Initial residual = 0.142663, Final residual = 6.27948e-06, No Iterations 15
GAMG:  Solving for p, Initial residual = 0.187566, Final residual = 0.0106798, No Iterations 2
time step continuity errors : sum local = 3.90897e-06, global = 1.26972e-20
GAMG:  Solving for p, Initial residual = 0.0474419, Final residual = 8.97475e-07, No Iterations 12
time step continuity errors : sum local = 3.40145e-10, global = 1.19487e-19, cumulative = 1.21112e-19
smoothSolver:  Solving for epsilon, Initial residual = 0.0121838, Final residual = 6.50137e-06, No Iterations 8
smoothSolver:  Solving for k, Initial residual = 0.158295, Final residual = 8.22947e-06, No Iterations 14
ExecutionTime = 0.31799 s  ClockTime = 0 s

Courant Number mean: 0.0263045 max: 0.716294
Time = 0.025s

smoothSolver:  Solving for Ux, Initial residual = 0.0947702, Final residual = 5.55094e-06, No Iterations 14
smoothSolver:  Solving for Uy, Initial residual = 0.1025, Final residual = 8.18361e-06, No Iterations 14
GAMG:  Solving for p, Initial residual = 0.164058, Final residual = 0.00927222, No Iterations 2
time step continuity errors : sum local = 3.65163e-06, global = -1.56771e-19
GAMG:  Solving for p, Initial residual = 0.0341541, Final residual = 6.41425e-07, No Iterations 13
time step continuity errors : sum local = 2.82237e-10, global = -3.10005e-20, cumulative = 9.01114e-20
smoothSolver:  Solving for epsilon, Initial residual = 0.014629, Final residual = 7.2979e-06, No Iterations 8
smoothSolver:  Solving for k, Initial residual = 0.122449, Final residual = 6.60221e-06, No Iterations 14
ExecutionTime = 0.336761 s  ClockTime = 0 s

Courant Number mean: 0.0318999 max: 0.861887
Time = 0.03s

smoothSolver:  Solving for Ux, Initial residual = 0.0776751, Final residual = 7.02402e-06, No Iterations 14
smoothSolver:  Solving for Uy, Initial residual = 0.0820549, Final residual = 6.55688e-06, No Iterations 14
GAMG:  Solving for p, Initial residual = 0.140086, Final residual = 0.00749773, No Iterations 2
time step continuity errors : sum local = 3.82058e-06, global = -8.82388e-20
GAMG:  Solving for p, Initial residual = 0.0321097, Final residual = 6.01707e-07, No Iterations 13
time step continuity errors : sum local = 2.98643e-10, global = 6.34704e-20, cumulative = 1.53582e-19
smoothSolver:  Solving for epsilon, Initial residual = 0.0176746, Final residual = 8.14883e-06, No Iterations 8
smoothSolver:  Solving for k, Initial residual = 0.100758, Final residual = 5.90222e-06, No Iterations 14
ExecutionTime = 0.354077 s  ClockTime = 0 s

Courant Number mean: 0.0371766 max: 0.992297
Time = 0.035s

smoothSolver:  Solving for Ux, Initial residual = 0.0619616, Final residual = 7.11499e-06, No Iterations 19
smoothSolver:  Solving for Uy, Initial residual = 0.0687223, Final residual = 5.5772e-06, No Iterations 14
GAMG:  Solving for p, Initial residual = 0.129307, Final residual = 0.00772143, No Iterations 2
time step continuity errors : sum local = 4.2616e-06, global = -4.78938e-20
GAMG:  Solving for p, Initial residual = 0.0304743, Final residual = 5.80694e-07, No Iterations 13
time step continuity errors : sum local = 3.62103e-10, global = 5.03039e-20, cumulative = 2.03886e-19
smoothSolver:  Solving for epsilon, Initial residual = 0.0212418, Final residual = 8.93374e-06, No Iterations 8
smoothSolver:  Solving for k, Initial residual = 0.087272, Final residual = 7.44251e-06, No Iterations 14
ExecutionTime = 0.369375 s  ClockTime = 0 s

Courant Number mean: 0.0421615 max: 1.10858
Time = 0.04s

smoothSolver:  Solving for Ux, Initial residual = 0.0539945, Final residual = 8.16774e-06, No Iterations 35
smoothSolver:  Solving for Uy, Initial residual = 0.0573663, Final residual = 9.10708e-06, No Iterations 14
GAMG:  Solving for p, Initial residual = 0.120772, Final residual = 0.00586007, No Iterations 2
time step continuity errors : sum local = 3.88922e-06, global = 5.51109e-20
GAMG:  Solving for p, Initial residual = 0.028465, Final residual = 8.98064e-07, No Iterations 12
time step continuity errors : sum local = 6.51755e-10, global = -5.61163e-20, cumulative = 1.47769e-19
smoothSolver:  Solving for epsilon, Initial residual = 0.0252366, Final residual = 9.45998e-06, No Iterations 8
smoothSolver:  Solving for k, Initial residual = 0.07794, Final residual = 8.02504e-06, No Iterations 15
ExecutionTime = 0.382937 s  ClockTime = 0 s

Courant Number mean: 0.0468815 max: 1.21198
Time = 0.045s

smoothSolver:  Solving for Ux, Initial residual = 0.0451563, Final residual = 9.91929e-06, No Iterations 175
smoothSolver:  Solving for Uy, Initial residual = 0.0510338, Final residual = 9.71683e-06, No Iterations 45
GAMG:  Solving for p, Initial residual = 0.110473, Final residual = 0.00596134, No Iterations 2
time step continuity errors : sum local = 4.48008e-06, global = 9.10933e-20
GAMG:  Solving for p, Initial residual = 0.0263525, Final residual = 4.63558e-07, No Iterations 13
time step continuity errors : sum local = 3.92017e-10, global = 4.62209e-20, cumulative = 1.9399e-19
smoothSolver:  Solving for epsilon, Initial residual = 0.0291804, Final residual = 9.66538e-06, No Iterations 8
smoothSolver:  Solving for k, Initial residual = 0.0710265, Final residual = 9.19017e-06, No Iterations 20
ExecutionTime = 0.406268 s  ClockTime = 0 s

Courant Number mean: 0.0513446 max: 1.30345
Time = 0.05s

smoothSolver:  Solving for Ux, Initial residual = 0.040592, Final residual = 3.62473e+41, No Iterations 1000
smoothSolver:  Solving for Uy, Initial residual = 0.0437952, Final residual = 5.4931e+39, No Iterations 1000
GAMG:  Solving for p, Initial residual = 1, Final residual = 0.063602, No Iterations 2
time step continuity errors : sum local = 5.54861e+37, global = -1.1068e+22
GAMG:  Solving for p, Initial residual = 0.836813, Final residual = 8.60337e-07, No Iterations 14
time step continuity errors : sum local = 1.08188e+33, global = -3.3529e+21, cumulative = -3.3529e+21
