/*---------------------------------------------------------------------------*\
  =========                 |
  \\      /  F ield         | OpenFOAM: The Open Source CFD Toolbox
   \\    /   O peration     | Website:  https://openfoam.org
    \\  /    A nd           | Version:  13
     \\/     M anipulation  |
\*---------------------------------------------------------------------------*/
Build  : 13-65eda17ad4ca
Exec   : foamRun
Date   : Oct 29 2025
Time   : 00:42:41
Host   : "LAPTOP-416UROR2"
PID    : 10397
I/O    : uncollated
Case   : /home/adisr/OpenFOAM-learning1/incompressibleFlow/02-backwardstep/nextStep
nProcs : 1
sigFpe : Enabling floating point exception trapping (FOAM_SIGFPE).
fileModificationChecking : Monitoring run-time modified files using timeStampMaster (fileModificationSkew 10)
allowSystemOperations : Allowing user-supplied system call operations

// * * * * * * * * * * * * * * * * * * * * * * * * * * * * * * * * * * * * * //
Create time

--> FOAM Warning : 
    From function Foam::functionObjectList::functionObjectList(const Foam::Time&, bool)
    in file db/functionObjects/functionObjectList/functionObjectList.C at line 253
    Both "system/functions" and "system/controlDict/functions" found, the latter will be ignored.
Create mesh for time = 0

Selecting solver incompressibleFluid
Selecting viscosity model constant
Selecting turbulence model type RAS
    Selecting RAS turbulence model kOmegaSST
        Selecting generalised Newtonian model Newtonian
No MRF models present

Selecting patchDistMethod meshWave

SIMPLE: Convergence criteria found
        p: tolerance 0.01
        U: tolerance 0.001
        "(k|epsilon|omega|f|v2)": tolerance 0.001


SIMPLE: Operating solver in steady-state mode with 1 outer corrector
SIMPLE: Operating solver in SIMPLE mode



Starting time loop

streamlines streamlines:
    automatic track length specified through number of sub cycles : 5

streamlines streamlines write:
    Seeded 10 particles
    Sampled 114 locations

Time = 1s

smoothSolver:  Solving for Ux, Initial residual = 1, Final residual = 0.0157595, No Iterations 1
smoothSolver:  Solving for Uy, Initial residual = 1, Final residual = 0.0157213, No Iterations 1
GAMG:  Solving for p, Initial residual = 1, Final residual = 0.0684225, No Iterations 17
time step continuity errors : sum local = 1.19725, global = 0.179864, cumulative = 0.179864
smoothSolver:  Solving for omega, Initial residual = 0.146033, Final residual = 0.00815676, No Iterations 3
smoothSolver:  Solving for k, Initial residual = 1, Final residual = 0.0512361, No Iterations 3
ExecutionTime = 0.410959 s  ClockTime = 1 s

Time = 2s

smoothSolver:  Solving for Ux, Initial residual = 0.489828, Final residual = 0.0449215, No Iterations 4
smoothSolver:  Solving for Uy, Initial residual = 0.343816, Final residual = 0.0282182, No Iterations 4
GAMG:  Solving for p, Initial residual = 0.0429123, Final residual = 0.00374985, No Iterations 13
time step continuity errors : sum local = 5.99012, global = 0.131343, cumulative = 0.311207
smoothSolver:  Solving for omega, Initial residual = 0.544573, Final residual = 0.0436634, No Iterations 1
smoothSolver:  Solving for k, Initial residual = 0.530257, Final residual = 0.0270799, No Iterations 1
ExecutionTime = 0.429919 s  ClockTime = 1 s

Time = 3s

smoothSolver:  Solving for Ux, Initial residual = 0.152774, Final residual = 0.0111132, No Iterations 4
smoothSolver:  Solving for Uy, Initial residual = 0.248044, Final residual = 0.0234051, No Iterations 3
GAMG:  Solving for p, Initial residual = 0.128551, Final residual = 0.0123398, No Iterations 6
time step continuity errors : sum local = 5.07015, global = 0.45185, cumulative = 0.763057
smoothSolver:  Solving for omega, Initial residual = 0.814487, Final residual = 1.43276e-05, No Iterations 1
smoothSolver:  Solving for k, Initial residual = 0.175056, Final residual = 0.00733647, No Iterations 2
ExecutionTime = 0.442789 s  ClockTime = 1 s

Time = 4s

smoothSolver:  Solving for Ux, Initial residual = 0.0894555, Final residual = 0.006764, No Iterations 4
smoothSolver:  Solving for Uy, Initial residual = 0.153998, Final residual = 0.0149676, No Iterations 3
GAMG:  Solving for p, Initial residual = 0.110578, Final residual = 0.00875282, No Iterations 8
time step continuity errors : sum local = 2.04438, global = 0.035365, cumulative = 0.798422
smoothSolver:  Solving for omega, Initial residual = 0.704618, Final residual = 0.000762302, No Iterations 1
smoothSolver:  Solving for k, Initial residual = 0.1025, Final residual = 0.00537631, No Iterations 2
ExecutionTime = 0.456536 s  ClockTime = 1 s

Time = 5s

smoothSolver:  Solving for Ux, Initial residual = 0.0728594, Final residual = 0.00616825, No Iterations 4
smoothSolver:  Solving for Uy, Initial residual = 0.135861, Final residual = 0.00927376, No Iterations 4
GAMG:  Solving for p, Initial residual = 0.124103, Final residual = 0.0116821, No Iterations 4
time step continuity errors : sum local = 1.50585, global = -0.14174, cumulative = 0.656682
smoothSolver:  Solving for omega, Initial residual = 0.0851425, Final residual = 0.00408372, No Iterations 1
smoothSolver:  Solving for k, Initial residual = 0.0925637, Final residual = 0.00556433, No Iterations 2
ExecutionTime = 0.46861 s  ClockTime = 1 s

Time = 6s

smoothSolver:  Solving for Ux, Initial residual = 0.0631552, Final residual = 0.00592351, No Iterations 4
smoothSolver:  Solving for Uy, Initial residual = 0.106745, Final residual = 0.00866729, No Iterations 4
GAMG:  Solving for p, Initial residual = 0.106461, Final residual = 0.00957602, No Iterations 5
time step continuity errors : sum local = 1.13068, global = 0.164186, cumulative = 0.820868
smoothSolver:  Solving for omega, Initial residual = 0.0223154, Final residual = 0.000831425, No Iterations 2
smoothSolver:  Solving for k, Initial residual = 0.0815809, Final residual = 0.00491506, No Iterations 2
ExecutionTime = 0.48138 s  ClockTime = 1 s

Time = 7s

smoothSolver:  Solving for Ux, Initial residual = 0.0564682, Final residual = 0.00346265, No Iterations 5
smoothSolver:  Solving for Uy, Initial residual = 0.086139, Final residual = 0.00790111, No Iterations 4
GAMG:  Solving for p, Initial residual = 0.096072, Final residual = 0.00784795, No Iterations 4
time step continuity errors : sum local = 0.923668, global = -0.118602, cumulative = 0.702266
smoothSolver:  Solving for omega, Initial residual = 0.0139523, Final residual = 0.000668829, No Iterations 2
smoothSolver:  Solving for k, Initial residual = 0.0708189, Final residual = 0.00441375, No Iterations 2
ExecutionTime = 0.493876 s  ClockTime = 1 s

Time = 8s

smoothSolver:  Solving for Ux, Initial residual = 0.0508281, Final residual = 0.00330863, No Iterations 5
smoothSolver:  Solving for Uy, Initial residual = 0.0836527, Final residual = 0.00764584, No Iterations 4
GAMG:  Solving for p, Initial residual = 0.0934208, Final residual = 0.00651743, No Iterations 4
time step continuity errors : sum local = 0.773425, global = -0.103912, cumulative = 0.598354
smoothSolver:  Solving for omega, Initial residual = 0.013841, Final residual = 0.000647307, No Iterations 2
smoothSolver:  Solving for k, Initial residual = 0.0625279, Final residual = 0.00393298, No Iterations 2
ExecutionTime = 0.506604 s  ClockTime = 1 s

Time = 9s

smoothSolver:  Solving for Ux, Initial residual = 0.0472716, Final residual = 0.00311693, No Iterations 5
smoothSolver:  Solving for Uy, Initial residual = 0.0800718, Final residual = 0.00736795, No Iterations 4
GAMG:  Solving for p, Initial residual = 0.0930739, Final residual = 0.00703213, No Iterations 4
time step continuity errors : sum local = 0.799231, global = -0.119517, cumulative = 0.478837
smoothSolver:  Solving for omega, Initial residual = 0.0117742, Final residual = 0.000598472, No Iterations 2
smoothSolver:  Solving for k, Initial residual = 0.0576404, Final residual = 0.00352074, No Iterations 2
ExecutionTime = 0.519035 s  ClockTime = 1 s

Time = 10s

smoothSolver:  Solving for Ux, Initial residual = 0.044213, Final residual = 0.00290681, No Iterations 5
smoothSolver:  Solving for Uy, Initial residual = 0.0762122, Final residual = 0.00710348, No Iterations 4
GAMG:  Solving for p, Initial residual = 0.0948671, Final residual = 0.00765898, No Iterations 4
time step continuity errors : sum local = 0.840154, global = -0.133212, cumulative = 0.345625
smoothSolver:  Solving for omega, Initial residual = 0.0114806, Final residual = 0.000598383, No Iterations 2
smoothSolver:  Solving for k, Initial residual = 0.0534396, Final residual = 0.00326854, No Iterations 2
ExecutionTime = 0.531371 s  ClockTime = 1 s

Time = 11s

smoothSolver:  Solving for Ux, Initial residual = 0.0409387, Final residual = 0.00269515, No Iterations 5
smoothSolver:  Solving for Uy, Initial residual = 0.0755877, Final residual = 0.00703927, No Iterations 4
GAMG:  Solving for p, Initial residual = 0.0950986, Final residual = 0.00807478, No Iterations 4
time step continuity errors : sum local = 0.834448, global = -0.135301, cumulative = 0.210324
smoothSolver:  Solving for omega, Initial residual = 0.0106365, Final residual = 0.000521758, No Iterations 2
smoothSolver:  Solving for k, Initial residual = 0.0506151, Final residual = 0.00301787, No Iterations 2
ExecutionTime = 0.543645 s  ClockTime = 1 s

Time = 12s

smoothSolver:  Solving for Ux, Initial residual = 0.0380269, Final residual = 0.00249474, No Iterations 5
smoothSolver:  Solving for Uy, Initial residual = 0.0764484, Final residual = 0.00711404, No Iterations 4
GAMG:  Solving for p, Initial residual = 0.0988562, Final residual = 0.00788183, No Iterations 4
time step continuity errors : sum local = 0.76711, global = -0.121764, cumulative = 0.0885598
smoothSolver:  Solving for omega, Initial residual = 0.0101433, Final residual = 0.000537351, No Iterations 2
smoothSolver:  Solving for k, Initial residual = 0.0464294, Final residual = 0.00284478, No Iterations 2
ExecutionTime = 0.556022 s  ClockTime = 1 s

Time = 13s

smoothSolver:  Solving for Ux, Initial residual = 0.035437, Final residual = 0.0023187, No Iterations 5
smoothSolver:  Solving for Uy, Initial residual = 0.0769083, Final residual = 0.00730782, No Iterations 4
GAMG:  Solving for p, Initial residual = 0.0960069, Final residual = 0.00747524, No Iterations 4
time step continuity errors : sum local = 0.68685, global = -0.104007, cumulative = -0.0154473
smoothSolver:  Solving for omega, Initial residual = 0.00971451, Final residual = 0.000500337, No Iterations 2
smoothSolver:  Solving for k, Initial residual = 0.0449575, Final residual = 0.00267768, No Iterations 2
ExecutionTime = 0.568353 s  ClockTime = 1 s

Time = 14s

smoothSolver:  Solving for Ux, Initial residual = 0.0333038, Final residual = 0.00216058, No Iterations 5
smoothSolver:  Solving for Uy, Initial residual = 0.0767752, Final residual = 0.00754828, No Iterations 4
GAMG:  Solving for p, Initial residual = 0.0942914, Final residual = 0.00702321, No Iterations 4
time step continuity errors : sum local = 0.628525, global = -0.0890065, cumulative = -0.104454
smoothSolver:  Solving for omega, Initial residual = 0.252815, Final residual = 0.0245707, No Iterations 1
smoothSolver:  Solving for k, Initial residual = 0.0716727, Final residual = 0.00234933, No Iterations 2
ExecutionTime = 0.580508 s  ClockTime = 1 s

Time = 15s

smoothSolver:  Solving for Ux, Initial residual = 0.0316034, Final residual = 0.00202748, No Iterations 5
smoothSolver:  Solving for Uy, Initial residual = 0.0767302, Final residual = 0.00472459, No Iterations 5
GAMG:  Solving for p, Initial residual = 0.0940062, Final residual = 0.00734166, No Iterations 4
time step continuity errors : sum local = 0.627301, global = -0.0884591, cumulative = -0.192913
smoothSolver:  Solving for omega, Initial residual = 0.777559, Final residual = 0.000156298, No Iterations 1
smoothSolver:  Solving for k, Initial residual = 0.0419544, Final residual = 0.00224977, No Iterations 2
bounding k, min: -0.0565334 max: 2.38967 average: 0.542918
ExecutionTime = 0.593155 s  ClockTime = 1 s

Time = 16s

smoothSolver:  Solving for Ux, Initial residual = 0.030027, Final residual = 0.00190722, No Iterations 5
smoothSolver:  Solving for Uy, Initial residual = 0.0756618, Final residual = 0.00480063, No Iterations 5
GAMG:  Solving for p, Initial residual = 0.0920053, Final residual = 0.00751456, No Iterations 4
time step continuity errors : sum local = 0.630423, global = -0.090372, cumulative = -0.283285
smoothSolver:  Solving for omega, Initial residual = 0.623411, Final residual = 0.0292208, No Iterations 3
smoothSolver:  Solving for k, Initial residual = 0.110238, Final residual = 0.00659106, No Iterations 1
bounding k, min: -0.00115305 max: 3.36486 average: 0.55235
ExecutionTime = 0.605798 s  ClockTime = 1 s

Time = 17s

smoothSolver:  Solving for Ux, Initial residual = 0.0286644, Final residual = 0.00179497, No Iterations 5
smoothSolver:  Solving for Uy, Initial residual = 0.0747852, Final residual = 0.00487673, No Iterations 5
GAMG:  Solving for p, Initial residual = 0.0902381, Final residual = 0.00753321, No Iterations 4
time step continuity errors : sum local = 0.61519, global = -0.0848744, cumulative = -0.368159
smoothSolver:  Solving for omega, Initial residual = 0.815172, Final residual = 5.27831e-05, No Iterations 1
smoothSolver:  Solving for k, Initial residual = 0.118936, Final residual = 0.00434015, No Iterations 1
bounding k, min: -0.0380807 max: 3.29283 average: 0.563079
ExecutionTime = 0.61801 s  ClockTime = 1 s

Time = 18s

smoothSolver:  Solving for Ux, Initial residual = 0.0272283, Final residual = 0.00169071, No Iterations 5
smoothSolver:  Solving for Uy, Initial residual = 0.0734381, Final residual = 0.0049139, No Iterations 5
GAMG:  Solving for p, Initial residual = 0.0896804, Final residual = 0.00767345, No Iterations 4
time step continuity errors : sum local = 0.614546, global = -0.0839727, cumulative = -0.452132
smoothSolver:  Solving for omega, Initial residual = 0.817368, Final residual = 7.46814e-07, No Iterations 1
smoothSolver:  Solving for k, Initial residual = 0.0375317, Final residual = 0.00148582, No Iterations 2
ExecutionTime = 0.630278 s  ClockTime = 1 s

Time = 19s

smoothSolver:  Solving for Ux, Initial residual = 0.025702, Final residual = 0.00158792, No Iterations 5
smoothSolver:  Solving for Uy, Initial residual = 0.071441, Final residual = 0.00489925, No Iterations 5
GAMG:  Solving for p, Initial residual = 0.0906601, Final residual = 0.00774331, No Iterations 4
time step continuity errors : sum local = 0.602659, global = -0.0817907, cumulative = -0.533923
smoothSolver:  Solving for omega, Initial residual = 0.801743, Final residual = 2.64495e-05, No Iterations 1
smoothSolver:  Solving for k, Initial residual = 0.0355504, Final residual = 0.00148699, No Iterations 2
ExecutionTime = 0.642571 s  ClockTime = 1 s

Time = 20s

smoothSolver:  Solving for Ux, Initial residual = 0.0241234, Final residual = 0.00149007, No Iterations 5
smoothSolver:  Solving for Uy, Initial residual = 0.0690579, Final residual = 0.00484051, No Iterations 5
GAMG:  Solving for p, Initial residual = 0.092689, Final residual = 0.0075913, No Iterations 4
time step continuity errors : sum local = 0.573779, global = -0.0772109, cumulative = -0.611134
smoothSolver:  Solving for omega, Initial residual = 0.43511, Final residual = 0.000871419, No Iterations 1
smoothSolver:  Solving for k, Initial residual = 0.0358785, Final residual = 0.00149296, No Iterations 2
ExecutionTime = 0.655396 s  ClockTime = 1 s

Time = 21s

smoothSolver:  Solving for Ux, Initial residual = 0.0226945, Final residual = 0.00140045, No Iterations 5
smoothSolver:  Solving for Uy, Initial residual = 0.0662037, Final residual = 0.00473405, No Iterations 5
GAMG:  Solving for p, Initial residual = 0.0932289, Final residual = 0.00744492, No Iterations 4
time step continuity errors : sum local = 0.54869, global = -0.0740488, cumulative = -0.685182
smoothSolver:  Solving for omega, Initial residual = 0.0252513, Final residual = 0.00180418, No Iterations 1
smoothSolver:  Solving for k, Initial residual = 0.033786, Final residual = 0.00134264, No Iterations 2
ExecutionTime = 0.667719 s  ClockTime = 1 s

Time = 22s

smoothSolver:  Solving for Ux, Initial residual = 0.0213487, Final residual = 0.00131311, No Iterations 5
smoothSolver:  Solving for Uy, Initial residual = 0.0628521, Final residual = 0.00457572, No Iterations 5
GAMG:  Solving for p, Initial residual = 0.0919439, Final residual = 0.00696744, No Iterations 4
time step continuity errors : sum local = 0.505292, global = -0.0630851, cumulative = -0.748267
smoothSolver:  Solving for omega, Initial residual = 0.00971486, Final residual = 0.000412187, No Iterations 2
smoothSolver:  Solving for k, Initial residual = 0.0326431, Final residual = 0.00124067, No Iterations 2
ExecutionTime = 0.680086 s  ClockTime = 1 s

Time = 23s

smoothSolver:  Solving for Ux, Initial residual = 0.0200184, Final residual = 0.00123145, No Iterations 5
smoothSolver:  Solving for Uy, Initial residual = 0.0593379, Final residual = 0.00437341, No Iterations 5
GAMG:  Solving for p, Initial residual = 0.0894211, Final residual = 0.00646109, No Iterations 4
time step continuity errors : sum local = 0.464148, global = -0.0475804, cumulative = -0.795848
smoothSolver:  Solving for omega, Initial residual = 0.164854, Final residual = 0.00242485, No Iterations 2
smoothSolver:  Solving for k, Initial residual = 0.0417737, Final residual = 0.00117527, No Iterations 2
ExecutionTime = 0.692658 s  ClockTime = 1 s

Time = 24s

smoothSolver:  Solving for Ux, Initial residual = 0.018718, Final residual = 0.00115789, No Iterations 5
smoothSolver:  Solving for Uy, Initial residual = 0.0555888, Final residual = 0.00413862, No Iterations 5
GAMG:  Solving for p, Initial residual = 0.0872975, Final residual = 0.00621014, No Iterations 4
time step continuity errors : sum local = 0.443051, global = -0.0350642, cumulative = -0.830912
smoothSolver:  Solving for omega, Initial residual = 0.736997, Final residual = 0.000200085, No Iterations 1
smoothSolver:  Solving for k, Initial residual = 0.0297818, Final residual = 0.00114948, No Iterations 2
ExecutionTime = 0.705968 s  ClockTime = 1 s

Time = 25s

smoothSolver:  Solving for Ux, Initial residual = 0.0174314, Final residual = 0.00108759, No Iterations 5
smoothSolver:  Solving for Uy, Initial residual = 0.05174, Final residual = 0.00387536, No Iterations 5
GAMG:  Solving for p, Initial residual = 0.0850996, Final residual = 0.00611287, No Iterations 4
time step continuity errors : sum local = 0.432091, global = -0.0300889, cumulative = -0.861001
smoothSolver:  Solving for omega, Initial residual = 0.109385, Final residual = 0.00152009, No Iterations 1
smoothSolver:  Solving for k, Initial residual = 0.0286347, Final residual = 0.00112649, No Iterations 2
ExecutionTime = 0.718213 s  ClockTime = 1 s

Time = 26s

smoothSolver:  Solving for Ux, Initial residual = 0.0163057, Final residual = 0.00102264, No Iterations 5
smoothSolver:  Solving for Uy, Initial residual = 0.0479185, Final residual = 0.00359567, No Iterations 5
GAMG:  Solving for p, Initial residual = 0.0829759, Final residual = 0.00601204, No Iterations 4
time step continuity errors : sum local = 0.421314, global = -0.0339658, cumulative = -0.894967
smoothSolver:  Solving for omega, Initial residual = 0.0155634, Final residual = 0.000985675, No Iterations 2
smoothSolver:  Solving for k, Initial residual = 0.0281202, Final residual = 0.00117888, No Iterations 2
ExecutionTime = 0.730805 s  ClockTime = 1 s

Time = 27s

smoothSolver:  Solving for Ux, Initial residual = 0.0153526, Final residual = 0.000968491, No Iterations 5
smoothSolver:  Solving for Uy, Initial residual = 0.044289, Final residual = 0.00332789, No Iterations 5
GAMG:  Solving for p, Initial residual = 0.0800681, Final residual = 0.00577958, No Iterations 4
time step continuity errors : sum local = 0.403495, global = -0.0395995, cumulative = -0.934566
smoothSolver:  Solving for omega, Initial residual = 0.00996973, Final residual = 0.000295325, No Iterations 2
smoothSolver:  Solving for k, Initial residual = 0.0267203, Final residual = 0.00110964, No Iterations 2
ExecutionTime = 0.74427 s  ClockTime = 1 s

Time = 28s

smoothSolver:  Solving for Ux, Initial residual = 0.0144468, Final residual = 0.000920653, No Iterations 5
smoothSolver:  Solving for Uy, Initial residual = 0.0410974, Final residual = 0.00308803, No Iterations 5
GAMG:  Solving for p, Initial residual = 0.0771483, Final residual = 0.00530212, No Iterations 4
time step continuity errors : sum local = 0.374331, global = -0.0456017, cumulative = -0.980168
smoothSolver:  Solving for omega, Initial residual = 0.190925, Final residual = 0.00285913, No Iterations 2
smoothSolver:  Solving for k, Initial residual = 0.0364348, Final residual = 0.00105896, No Iterations 2
ExecutionTime = 0.756795 s  ClockTime = 1 s

Time = 29s

smoothSolver:  Solving for Ux, Initial residual = 0.0136905, Final residual = 0.000881095, No Iterations 5
smoothSolver:  Solving for Uy, Initial residual = 0.0384779, Final residual = 0.00289562, No Iterations 5
GAMG:  Solving for p, Initial residual = 0.0738754, Final residual = 0.0048593, No Iterations 4
time step continuity errors : sum local = 0.351309, global = -0.0463417, cumulative = -1.02651
smoothSolver:  Solving for omega, Initial residual = 0.760816, Final residual = 0.000104647, No Iterations 1
smoothSolver:  Solving for k, Initial residual = 0.0250238, Final residual = 0.00102377, No Iterations 2
ExecutionTime = 0.769033 s  ClockTime = 1 s

Time = 30s

smoothSolver:  Solving for Ux, Initial residual = 0.0131036, Final residual = 0.000852986, No Iterations 5
smoothSolver:  Solving for Uy, Initial residual = 0.0364627, Final residual = 0.00274942, No Iterations 5
GAMG:  Solving for p, Initial residual = 0.0726867, Final residual = 0.00726499, No Iterations 3
time step continuity errors : sum local = 0.536815, global = 0.0569698, cumulative = -0.96954
smoothSolver:  Solving for omega, Initial residual = 0.154431, Final residual = 0.00117622, No Iterations 1
smoothSolver:  Solving for k, Initial residual = 0.0239939, Final residual = 0.00099168, No Iterations 2
ExecutionTime = 0.780712 s  ClockTime = 1 s

Time = 31s

smoothSolver:  Solving for Ux, Initial residual = 0.0126882, Final residual = 0.000835225, No Iterations 5
smoothSolver:  Solving for Uy, Initial residual = 0.0349555, Final residual = 0.00264117, No Iterations 5
GAMG:  Solving for p, Initial residual = 0.0729769, Final residual = 0.00701624, No Iterations 3
time step continuity errors : sum local = 0.52508, global = -0.0416271, cumulative = -1.01117
smoothSolver:  Solving for omega, Initial residual = 0.0159, Final residual = 0.000901377, No Iterations 2
smoothSolver:  Solving for k, Initial residual = 0.0232937, Final residual = 0.000951884, No Iterations 2
bounding k, min: -0.0036502 max: 3.69115 average: 0.712501
ExecutionTime = 0.792736 s  ClockTime = 1 s

Time = 32s

smoothSolver:  Solving for Ux, Initial residual = 0.0123475, Final residual = 0.00081913, No Iterations 5
smoothSolver:  Solving for Uy, Initial residual = 0.0342244, Final residual = 0.00259192, No Iterations 5
GAMG:  Solving for p, Initial residual = 0.0712478, Final residual = 0.00648423, No Iterations 3
time step continuity errors : sum local = 0.498094, global = 0.0567443, cumulative = -0.954423
smoothSolver:  Solving for omega, Initial residual = 0.0125237, Final residual = 0.00029707, No Iterations 2
smoothSolver:  Solving for k, Initial residual = 0.0219235, Final residual = 0.000874898, No Iterations 2
ExecutionTime = 0.809121 s  ClockTime = 1 s

Time = 33s

smoothSolver:  Solving for Ux, Initial residual = 0.0121137, Final residual = 0.000818378, No Iterations 5
smoothSolver:  Solving for Uy, Initial residual = 0.0339197, Final residual = 0.002572, No Iterations 5
GAMG:  Solving for p, Initial residual = 0.0711548, Final residual = 0.00656584, No Iterations 3
time step continuity errors : sum local = 0.512344, global = -0.0740491, cumulative = -1.02847
smoothSolver:  Solving for omega, Initial residual = 0.162448, Final residual = 0.00353186, No Iterations 2
smoothSolver:  Solving for k, Initial residual = 0.0289833, Final residual = 0.00082623, No Iterations 2
ExecutionTime = 0.822206 s  ClockTime = 1 s

Time = 34s

smoothSolver:  Solving for Ux, Initial residual = 0.0119989, Final residual = 0.000827322, No Iterations 5
smoothSolver:  Solving for Uy, Initial residual = 0.0337818, Final residual = 0.0025603, No Iterations 5
GAMG:  Solving for p, Initial residual = 0.0707541, Final residual = 0.00650717, No Iterations 3
time step continuity errors : sum local = 0.522014, global = 0.081704, cumulative = -0.946768
smoothSolver:  Solving for omega, Initial residual = 0.734726, Final residual = 0.000271158, No Iterations 1
smoothSolver:  Solving for k, Initial residual = 0.020643, Final residual = 0.000824908, No Iterations 2
ExecutionTime = 0.83419 s  ClockTime = 1 s

Time = 35s

smoothSolver:  Solving for Ux, Initial residual = 0.0119228, Final residual = 0.000837349, No Iterations 5
smoothSolver:  Solving for Uy, Initial residual = 0.034179, Final residual = 0.00258193, No Iterations 5
GAMG:  Solving for p, Initial residual = 0.071746, Final residual = 0.00687209, No Iterations 3
time step continuity errors : sum local = 0.559641, global = -0.085636, cumulative = -1.0324
smoothSolver:  Solving for omega, Initial residual = 0.10879, Final residual = 0.00140182, No Iterations 1
smoothSolver:  Solving for k, Initial residual = 0.0200071, Final residual = 0.000819683, No Iterations 2
ExecutionTime = 0.84649 s  ClockTime = 1 s

Time = 36s

smoothSolver:  Solving for Ux, Initial residual = 0.0118973, Final residual = 0.000853109, No Iterations 5
smoothSolver:  Solving for Uy, Initial residual = 0.0345341, Final residual = 0.00260055, No Iterations 5
GAMG:  Solving for p, Initial residual = 0.0717584, Final residual = 0.00690188, No Iterations 3
time step continuity errors : sum local = 0.575912, global = 0.0917424, cumulative = -0.940661
smoothSolver:  Solving for omega, Initial residual = 0.0123084, Final residual = 0.000388695, No Iterations 2
smoothSolver:  Solving for k, Initial residual = 0.019726, Final residual = 0.000817359, No Iterations 2
ExecutionTime = 0.858941 s  ClockTime = 1 s

Time = 37s

smoothSolver:  Solving for Ux, Initial residual = 0.0119238, Final residual = 0.000862132, No Iterations 5
smoothSolver:  Solving for Uy, Initial residual = 0.0351857, Final residual = 0.00263873, No Iterations 5
GAMG:  Solving for p, Initial residual = 0.0720285, Final residual = 0.00464214, No Iterations 4
time step continuity errors : sum local = 0.392887, global = 0.0448531, cumulative = -0.895808
smoothSolver:  Solving for omega, Initial residual = 0.00761986, Final residual = 0.000256057, No Iterations 2
smoothSolver:  Solving for k, Initial residual = 0.0186366, Final residual = 0.000794569, No Iterations 2
bounding k, min: -0.000442976 max: 3.47856 average: 0.773211
ExecutionTime = 0.871907 s  ClockTime = 1 s

Time = 38s

smoothSolver:  Solving for Ux, Initial residual = 0.011942, Final residual = 0.00087141, No Iterations 5
smoothSolver:  Solving for Uy, Initial residual = 0.035582, Final residual = 0.00266606, No Iterations 5
GAMG:  Solving for p, Initial residual = 0.0710098, Final residual = 0.0067988, No Iterations 3
time step continuity errors : sum local = 0.590915, global = -0.0972263, cumulative = -0.993034
smoothSolver:  Solving for omega, Initial residual = 0.182894, Final residual = 0.00311557, No Iterations 2
smoothSolver:  Solving for k, Initial residual = 0.0257147, Final residual = 0.000753051, No Iterations 2
ExecutionTime = 0.883976 s  ClockTime = 1 s

Time = 39s

smoothSolver:  Solving for Ux, Initial residual = 0.0120867, Final residual = 0.000889005, No Iterations 5
smoothSolver:  Solving for Uy, Initial residual = 0.0358597, Final residual = 0.002679, No Iterations 5
GAMG:  Solving for p, Initial residual = 0.0710147, Final residual = 0.00666489, No Iterations 3
time step continuity errors : sum local = 0.600123, global = 0.104869, cumulative = -0.888166
smoothSolver:  Solving for omega, Initial residual = 0.759007, Final residual = 0.000134429, No Iterations 1
smoothSolver:  Solving for k, Initial residual = 0.0177133, Final residual = 0.000779003, No Iterations 2
ExecutionTime = 0.895916 s  ClockTime = 1 s

Time = 40s

smoothSolver:  Solving for Ux, Initial residual = 0.0121489, Final residual = 0.000894902, No Iterations 5
smoothSolver:  Solving for Uy, Initial residual = 0.0362265, Final residual = 0.00269391, No Iterations 5
GAMG:  Solving for p, Initial residual = 0.0722715, Final residual = 0.00480235, No Iterations 4
time step continuity errors : sum local = 0.438898, global = 0.0558679, cumulative = -0.832298
smoothSolver:  Solving for omega, Initial residual = 0.148766, Final residual = 0.00133771, No Iterations 1
smoothSolver:  Solving for k, Initial residual = 0.0176884, Final residual = 0.000798984, No Iterations 2
ExecutionTime = 0.908445 s  ClockTime = 1 s

Time = 41s

smoothSolver:  Solving for Ux, Initial residual = 0.0122021, Final residual = 0.000898264, No Iterations 5
smoothSolver:  Solving for Uy, Initial residual = 0.0365454, Final residual = 0.00271133, No Iterations 5
GAMG:  Solving for p, Initial residual = 0.071058, Final residual = 0.00691133, No Iterations 3
time step continuity errors : sum local = 0.651619, global = -0.102181, cumulative = -0.934479
smoothSolver:  Solving for omega, Initial residual = 0.0117821, Final residual = 0.00031926, No Iterations 2
smoothSolver:  Solving for k, Initial residual = 0.0170931, Final residual = 0.000805164, No Iterations 2
ExecutionTime = 0.920629 s  ClockTime = 1 s

Time = 42s

smoothSolver:  Solving for Ux, Initial residual = 0.0123297, Final residual = 0.000906586, No Iterations 5
smoothSolver:  Solving for Uy, Initial residual = 0.0366903, Final residual = 0.00271993, No Iterations 5
GAMG:  Solving for p, Initial residual = 0.0708696, Final residual = 0.00658941, No Iterations 3
time step continuity errors : sum local = 0.643826, global = 0.111795, cumulative = -0.822684
smoothSolver:  Solving for omega, Initial residual = 0.00684264, Final residual = 0.000252866, No Iterations 2
smoothSolver:  Solving for k, Initial residual = 0.01675, Final residual = 0.000813648, No Iterations 2
ExecutionTime = 0.932831 s  ClockTime = 1 s

Time = 43s

smoothSolver:  Solving for Ux, Initial residual = 0.0124312, Final residual = 0.000905467, No Iterations 5
smoothSolver:  Solving for Uy, Initial residual = 0.0368929, Final residual = 0.00273084, No Iterations 5
GAMG:  Solving for p, Initial residual = 0.0707434, Final residual = 0.00461117, No Iterations 4
time step continuity errors : sum local = 0.4585, global = 0.0524552, cumulative = -0.770228
smoothSolver:  Solving for omega, Initial residual = 0.167221, Final residual = 0.00257976, No Iterations 2
smoothSolver:  Solving for k, Initial residual = 0.0225182, Final residual = 0.000819708, No Iterations 2
ExecutionTime = 0.945447 s  ClockTime = 1 s

Time = 44s

smoothSolver:  Solving for Ux, Initial residual = 0.0124625, Final residual = 0.000897699, No Iterations 5
smoothSolver:  Solving for Uy, Initial residual = 0.0371239, Final residual = 0.00274744, No Iterations 5
GAMG:  Solving for p, Initial residual = 0.0697374, Final residual = 0.00651192, No Iterations 3
time step continuity errors : sum local = 0.669514, global = -0.0973338, cumulative = -0.867562
smoothSolver:  Solving for omega, Initial residual = 0.753424, Final residual = 0.000121126, No Iterations 1
smoothSolver:  Solving for k, Initial residual = 0.0166389, Final residual = 0.000886208, No Iterations 2
ExecutionTime = 0.957366 s  ClockTime = 1 s

Time = 45s

smoothSolver:  Solving for Ux, Initial residual = 0.0125898, Final residual = 0.000897857, No Iterations 5
smoothSolver:  Solving for Uy, Initial residual = 0.0370634, Final residual = 0.00275291, No Iterations 5
GAMG:  Solving for p, Initial residual = 0.0690358, Final residual = 0.00629875, No Iterations 3
time step continuity errors : sum local = 0.671172, global = 0.108763, cumulative = -0.758799
smoothSolver:  Solving for omega, Initial residual = 0.134331, Final residual = 0.00114055, No Iterations 1
smoothSolver:  Solving for k, Initial residual = 0.0163348, Final residual = 0.000944794, No Iterations 2
ExecutionTime = 0.969505 s  ClockTime = 1 s

Time = 46s

smoothSolver:  Solving for Ux, Initial residual = 0.0127099, Final residual = 0.000894535, No Iterations 5
smoothSolver:  Solving for Uy, Initial residual = 0.0371931, Final residual = 0.00276695, No Iterations 5
GAMG:  Solving for p, Initial residual = 0.0690295, Final residual = 0.00689627, No Iterations 3
time step continuity errors : sum local = 0.747487, global = -0.0997159, cumulative = -0.858515
smoothSolver:  Solving for omega, Initial residual = 0.0140755, Final residual = 0.00105298, No Iterations 2
smoothSolver:  Solving for k, Initial residual = 0.0164382, Final residual = 0.00100464, No Iterations 2
ExecutionTime = 0.981902 s  ClockTime = 1 s

Time = 47s

smoothSolver:  Solving for Ux, Initial residual = 0.0128637, Final residual = 0.000895474, No Iterations 5
smoothSolver:  Solving for Uy, Initial residual = 0.0374445, Final residual = 0.00278805, No Iterations 5
GAMG:  Solving for p, Initial residual = 0.0678612, Final residual = 0.00651463, No Iterations 3
time step continuity errors : sum local = 0.730804, global = 0.110398, cumulative = -0.748117
smoothSolver:  Solving for omega, Initial residual = 0.00997122, Final residual = 0.000297556, No Iterations 2
smoothSolver:  Solving for k, Initial residual = 0.0164522, Final residual = 0.00100816, No Iterations 2
ExecutionTime = 0.994133 s  ClockTime = 1 s

Time = 48s

smoothSolver:  Solving for Ux, Initial residual = 0.0130264, Final residual = 0.000902555, No Iterations 5
smoothSolver:  Solving for Uy, Initial residual = 0.0378095, Final residual = 0.00281497, No Iterations 5
GAMG:  Solving for p, Initial residual = 0.0679151, Final residual = 0.00670294, No Iterations 3
time step continuity errors : sum local = 0.764294, global = -0.100159, cumulative = -0.848276
smoothSolver:  Solving for omega, Initial residual = 0.17693, Final residual = 0.00307664, No Iterations 2
smoothSolver:  Solving for k, Initial residual = 0.0220998, Final residual = 0.000997641, No Iterations 2
ExecutionTime = 1.00619 s  ClockTime = 1 s

Time = 49s

smoothSolver:  Solving for Ux, Initial residual = 0.0132104, Final residual = 0.000915532, No Iterations 5
smoothSolver:  Solving for Uy, Initial residual = 0.0383005, Final residual = 0.00285569, No Iterations 5
GAMG:  Solving for p, Initial residual = 0.0676315, Final residual = 0.006327, No Iterations 3
time step continuity errors : sum local = 0.744302, global = 0.108577, cumulative = -0.739699
smoothSolver:  Solving for omega, Initial residual = 0.759753, Final residual = 0.000133094, No Iterations 1
smoothSolver:  Solving for k, Initial residual = 0.0161551, Final residual = 0.00105563, No Iterations 2
ExecutionTime = 1.01803 s  ClockTime = 1 s

Time = 50s

smoothSolver:  Solving for Ux, Initial residual = 0.0134764, Final residual = 0.000940369, No Iterations 5
smoothSolver:  Solving for Uy, Initial residual = 0.038893, Final residual = 0.00291051, No Iterations 5
GAMG:  Solving for p, Initial residual = 0.068949, Final residual = 0.00644779, No Iterations 3
time step continuity errors : sum local = 0.767234, global = -0.100642, cumulative = -0.840341
smoothSolver:  Solving for omega, Initial residual = 0.153045, Final residual = 0.00136285, No Iterations 1
smoothSolver:  Solving for k, Initial residual = 0.0165026, Final residual = 0.00113688, No Iterations 2
ExecutionTime = 1.03046 s  ClockTime = 1 s

Time = 51s

smoothSolver:  Solving for Ux, Initial residual = 0.0137547, Final residual = 0.000965581, No Iterations 5
smoothSolver:  Solving for Uy, Initial residual = 0.0395867, Final residual = 0.0029752, No Iterations 5
GAMG:  Solving for p, Initial residual = 0.0694671, Final residual = 0.00616139, No Iterations 3
time step continuity errors : sum local = 0.751626, global = 0.105327, cumulative = -0.735014
smoothSolver:  Solving for omega, Initial residual = 0.0151105, Final residual = 0.000896222, No Iterations 2
smoothSolver:  Solving for k, Initial residual = 0.0166735, Final residual = 0.0011766, No Iterations 2
ExecutionTime = 1.04257 s  ClockTime = 1 s

Time = 52s

smoothSolver:  Solving for Ux, Initial residual = 0.0141164, Final residual = 0.000993937, No Iterations 5
smoothSolver:  Solving for Uy, Initial residual = 0.0404339, Final residual = 0.00305095, No Iterations 5
GAMG:  Solving for p, Initial residual = 0.0708797, Final residual = 0.00623391, No Iterations 3
time step continuity errors : sum local = 0.766354, global = -0.0997124, cumulative = -0.834727
smoothSolver:  Solving for omega, Initial residual = 0.0119334, Final residual = 0.000343988, No Iterations 2
smoothSolver:  Solving for k, Initial residual = 0.0167653, Final residual = 0.00114833, No Iterations 2
ExecutionTime = 1.05507 s  ClockTime = 1 s

Time = 53s

smoothSolver:  Solving for Ux, Initial residual = 0.0144585, Final residual = 0.00101682, No Iterations 5
smoothSolver:  Solving for Uy, Initial residual = 0.0412184, Final residual = 0.00312886, No Iterations 5
GAMG:  Solving for p, Initial residual = 0.0718676, Final residual = 0.00609333, No Iterations 3
time step continuity errors : sum local = 0.764032, global = 0.104408, cumulative = -0.730318
smoothSolver:  Solving for omega, Initial residual = 0.152279, Final residual = 0.00277862, No Iterations 2
smoothSolver:  Solving for k, Initial residual = 0.0221856, Final residual = 0.00113695, No Iterations 2
ExecutionTime = 1.06784 s  ClockTime = 1 s

Time = 54s

smoothSolver:  Solving for Ux, Initial residual = 0.0147726, Final residual = 0.00103507, No Iterations 5
smoothSolver:  Solving for Uy, Initial residual = 0.0421078, Final residual = 0.00321411, No Iterations 5
GAMG:  Solving for p, Initial residual = 0.0738737, Final residual = 0.00622134, No Iterations 3
time step continuity errors : sum local = 0.783113, global = -0.101819, cumulative = -0.832137
smoothSolver:  Solving for omega, Initial residual = 0.742057, Final residual = 0.00024361, No Iterations 1
smoothSolver:  Solving for k, Initial residual = 0.0172771, Final residual = 0.00119636, No Iterations 2
ExecutionTime = 1.0813 s  ClockTime = 1 s

Time = 55s

smoothSolver:  Solving for Ux, Initial residual = 0.0150123, Final residual = 0.00104868, No Iterations 5
smoothSolver:  Solving for Uy, Initial residual = 0.0430483, Final residual = 0.00331062, No Iterations 5
GAMG:  Solving for p, Initial residual = 0.074974, Final residual = 0.00608993, No Iterations 3
time step continuity errors : sum local = 0.779657, global = 0.103751, cumulative = -0.728386
smoothSolver:  Solving for omega, Initial residual = 0.123644, Final residual = 0.00195476, No Iterations 1
smoothSolver:  Solving for k, Initial residual = 0.017713, Final residual = 0.00127409, No Iterations 2
ExecutionTime = 1.09331 s  ClockTime = 1 s

Time = 56s

smoothSolver:  Solving for Ux, Initial residual = 0.0151813, Final residual = 0.00105755, No Iterations 5
smoothSolver:  Solving for Uy, Initial residual = 0.04389, Final residual = 0.00340787, No Iterations 5
GAMG:  Solving for p, Initial residual = 0.0768839, Final residual = 0.0062165, No Iterations 3
time step continuity errors : sum local = 0.79856, global = -0.0973613, cumulative = -0.825747
smoothSolver:  Solving for omega, Initial residual = 0.0153734, Final residual = 0.000833775, No Iterations 2
smoothSolver:  Solving for k, Initial residual = 0.0181718, Final residual = 0.00132689, No Iterations 2
ExecutionTime = 1.10564 s  ClockTime = 1 s

Time = 57s

smoothSolver:  Solving for Ux, Initial residual = 0.015386, Final residual = 0.00106626, No Iterations 5
smoothSolver:  Solving for Uy, Initial residual = 0.0447505, Final residual = 0.00350105, No Iterations 5
GAMG:  Solving for p, Initial residual = 0.0776316, Final residual = 0.00608245, No Iterations 3
time step continuity errors : sum local = 0.792734, global = 0.0997303, cumulative = -0.726017
smoothSolver:  Solving for omega, Initial residual = 0.0128736, Final residual = 0.000370927, No Iterations 2
smoothSolver:  Solving for k, Initial residual = 0.0184004, Final residual = 0.00131979, No Iterations 2
ExecutionTime = 1.11801 s  ClockTime = 1 s

Time = 58s

smoothSolver:  Solving for Ux, Initial residual = 0.0155195, Final residual = 0.00106993, No Iterations 5
smoothSolver:  Solving for Uy, Initial residual = 0.0456073, Final residual = 0.00358401, No Iterations 5
GAMG:  Solving for p, Initial residual = 0.0793951, Final residual = 0.00623949, No Iterations 3
time step continuity errors : sum local = 0.8144, global = -0.0851844, cumulative = -0.811201
smoothSolver:  Solving for omega, Initial residual = 0.17286, Final residual = 0.00302862, No Iterations 2
smoothSolver:  Solving for k, Initial residual = 0.0236213, Final residual = 0.00133257, No Iterations 2
ExecutionTime = 1.13039 s  ClockTime = 1 s

Time = 59s

smoothSolver:  Solving for Ux, Initial residual = 0.0156653, Final residual = 0.0010749, No Iterations 5
smoothSolver:  Solving for Uy, Initial residual = 0.0464189, Final residual = 0.00366356, No Iterations 5
GAMG:  Solving for p, Initial residual = 0.0808553, Final residual = 0.0063068, No Iterations 3
time step continuity errors : sum local = 0.829433, global = 0.108095, cumulative = -0.703106
smoothSolver:  Solving for omega, Initial residual = 0.758132, Final residual = 0.000122272, No Iterations 1
smoothSolver:  Solving for k, Initial residual = 0.0191028, Final residual = 0.00138432, No Iterations 2
ExecutionTime = 1.14243 s  ClockTime = 1 s

Time = 60s

smoothSolver:  Solving for Ux, Initial residual = 0.0157019, Final residual = 0.00107575, No Iterations 5
smoothSolver:  Solving for Uy, Initial residual = 0.0470617, Final residual = 0.00373429, No Iterations 5
GAMG:  Solving for p, Initial residual = 0.0827311, Final residual = 0.00681939, No Iterations 3
time step continuity errors : sum local = 0.901942, global = -0.0991548, cumulative = -0.802261
smoothSolver:  Solving for omega, Initial residual = 0.149377, Final residual = 0.00145653, No Iterations 1
smoothSolver:  Solving for k, Initial residual = 0.0195024, Final residual = 0.0014668, No Iterations 2
ExecutionTime = 1.15452 s  ClockTime = 1 s

Time = 61s

smoothSolver:  Solving for Ux, Initial residual = 0.0157187, Final residual = 0.00107267, No Iterations 5
smoothSolver:  Solving for Uy, Initial residual = 0.0475438, Final residual = 0.00379096, No Iterations 5
GAMG:  Solving for p, Initial residual = 0.0836643, Final residual = 0.00674016, No Iterations 3
time step continuity errors : sum local = 0.904242, global = 0.10533, cumulative = -0.696931
smoothSolver:  Solving for omega, Initial residual = 0.0117374, Final residual = 0.000392039, No Iterations 2
smoothSolver:  Solving for k, Initial residual = 0.0197512, Final residual = 0.00152589, No Iterations 2
ExecutionTime = 1.16718 s  ClockTime = 1 s

Time = 62s

smoothSolver:  Solving for Ux, Initial residual = 0.0157058, Final residual = 0.00106775, No Iterations 5
smoothSolver:  Solving for Uy, Initial residual = 0.0479655, Final residual = 0.00383373, No Iterations 5
GAMG:  Solving for p, Initial residual = 0.0841658, Final residual = 0.00713067, No Iterations 3
time step continuity errors : sum local = 0.962919, global = -0.0998727, cumulative = -0.796804
smoothSolver:  Solving for omega, Initial residual = 0.00835658, Final residual = 0.000405822, No Iterations 2
smoothSolver:  Solving for k, Initial residual = 0.0200515, Final residual = 0.00151192, No Iterations 2
ExecutionTime = 1.17962 s  ClockTime = 1 s

Time = 63s

smoothSolver:  Solving for Ux, Initial residual = 0.0157275, Final residual = 0.00106677, No Iterations 5
smoothSolver:  Solving for Uy, Initial residual = 0.0482911, Final residual = 0.00385816, No Iterations 5
GAMG:  Solving for p, Initial residual = 0.0857347, Final residual = 0.00736415, No Iterations 3
time step continuity errors : sum local = 1.00453, global = 0.1194, cumulative = -0.677404
smoothSolver:  Solving for omega, Initial residual = 0.144549, Final residual = 0.00397496, No Iterations 2
smoothSolver:  Solving for k, Initial residual = 0.024441, Final residual = 0.00149913, No Iterations 2
ExecutionTime = 1.19187 s  ClockTime = 1 s

Time = 64s

smoothSolver:  Solving for Ux, Initial residual = 0.0157419, Final residual = 0.00106587, No Iterations 5
smoothSolver:  Solving for Uy, Initial residual = 0.0485562, Final residual = 0.00387218, No Iterations 5
GAMG:  Solving for p, Initial residual = 0.0877481, Final residual = 0.00776967, No Iterations 3
time step continuity errors : sum local = 1.07112, global = -0.114672, cumulative = -0.792075
smoothSolver:  Solving for omega, Initial residual = 0.751522, Final residual = 0.000197083, No Iterations 1
smoothSolver:  Solving for k, Initial residual = 0.0203918, Final residual = 0.00154912, No Iterations 2
ExecutionTime = 1.20396 s  ClockTime = 1 s

Time = 65s

smoothSolver:  Solving for Ux, Initial residual = 0.0157473, Final residual = 0.00106405, No Iterations 5
smoothSolver:  Solving for Uy, Initial residual = 0.0486896, Final residual = 0.00386813, No Iterations 5
GAMG:  Solving for p, Initial residual = 0.08922, Final residual = 0.00775339, No Iterations 3
time step continuity errors : sum local = 1.08813, global = 0.129258, cumulative = -0.662817
smoothSolver:  Solving for omega, Initial residual = 0.139178, Final residual = 0.00186171, No Iterations 1
smoothSolver:  Solving for k, Initial residual = 0.0207538, Final residual = 0.00158954, No Iterations 2
ExecutionTime = 1.21624 s  ClockTime = 1 s

Time = 66s

smoothSolver:  Solving for Ux, Initial residual = 0.0157534, Final residual = 0.00106252, No Iterations 5
smoothSolver:  Solving for Uy, Initial residual = 0.0486887, Final residual = 0.00385209, No Iterations 5
GAMG:  Solving for p, Initial residual = 0.0907344, Final residual = 0.00797468, No Iterations 3
time step continuity errors : sum local = 1.12516, global = -0.131959, cumulative = -0.794776
smoothSolver:  Solving for omega, Initial residual = 0.0123032, Final residual = 0.000365312, No Iterations 2
smoothSolver:  Solving for k, Initial residual = 0.021112, Final residual = 0.00161044, No Iterations 2
ExecutionTime = 1.22878 s  ClockTime = 1 s

Time = 67s

smoothSolver:  Solving for Ux, Initial residual = 0.0157766, Final residual = 0.00106544, No Iterations 5
smoothSolver:  Solving for Uy, Initial residual = 0.0484991, Final residual = 0.00381724, No Iterations 5
GAMG:  Solving for p, Initial residual = 0.0901248, Final residual = 0.00813518, No Iterations 3
time step continuity errors : sum local = 1.1562, global = 0.144757, cumulative = -0.65002
smoothSolver:  Solving for omega, Initial residual = 0.00819716, Final residual = 0.000342045, No Iterations 2
smoothSolver:  Solving for k, Initial residual = 0.0209619, Final residual = 0.00158144, No Iterations 2
ExecutionTime = 1.24088 s  ClockTime = 1 s

Time = 68s

smoothSolver:  Solving for Ux, Initial residual = 0.0157543, Final residual = 0.00106588, No Iterations 5
smoothSolver:  Solving for Uy, Initial residual = 0.0481952, Final residual = 0.00376456, No Iterations 5
GAMG:  Solving for p, Initial residual = 0.08966, Final residual = 0.00834557, No Iterations 3
time step continuity errors : sum local = 1.18492, global = -0.131519, cumulative = -0.781539
smoothSolver:  Solving for omega, Initial residual = 0.173175, Final residual = 0.00305866, No Iterations 2
smoothSolver:  Solving for k, Initial residual = 0.024861, Final residual = 0.0015483, No Iterations 2
ExecutionTime = 1.25333 s  ClockTime = 1 s

Time = 69s

smoothSolver:  Solving for Ux, Initial residual = 0.015736, Final residual = 0.00106718, No Iterations 5
smoothSolver:  Solving for Uy, Initial residual = 0.0477809, Final residual = 0.00369923, No Iterations 5
GAMG:  Solving for p, Initial residual = 0.088336, Final residual = 0.00818396, No Iterations 3
time step continuity errors : sum local = 1.17721, global = 0.13918, cumulative = -0.642359
smoothSolver:  Solving for omega, Initial residual = 0.755936, Final residual = 0.000133703, No Iterations 1
smoothSolver:  Solving for k, Initial residual = 0.0209989, Final residual = 0.00155079, No Iterations 2
ExecutionTime = 1.26725 s  ClockTime = 1 s

Time = 70s

smoothSolver:  Solving for Ux, Initial residual = 0.01566, Final residual = 0.00106438, No Iterations 5
smoothSolver:  Solving for Uy, Initial residual = 0.0474893, Final residual = 0.00363178, No Iterations 5
GAMG:  Solving for p, Initial residual = 0.0872508, Final residual = 0.00834658, No Iterations 3
time step continuity errors : sum local = 1.20669, global = -0.123065, cumulative = -0.765424
smoothSolver:  Solving for omega, Initial residual = 0.145467, Final residual = 0.00146321, No Iterations 1
smoothSolver:  Solving for k, Initial residual = 0.0210845, Final residual = 0.0015328, No Iterations 2
ExecutionTime = 1.27941 s  ClockTime = 1 s

Time = 71s

smoothSolver:  Solving for Ux, Initial residual = 0.0156723, Final residual = 0.00106229, No Iterations 5
smoothSolver:  Solving for Uy, Initial residual = 0.0473538, Final residual = 0.00357816, No Iterations 5
GAMG:  Solving for p, Initial residual = 0.0852371, Final residual = 0.00822473, No Iterations 3
time step continuity errors : sum local = 1.21002, global = 0.130418, cumulative = -0.635006
smoothSolver:  Solving for omega, Initial residual = 0.0127025, Final residual = 0.00043992, No Iterations 2
smoothSolver:  Solving for k, Initial residual = 0.0208544, Final residual = 0.00148574, No Iterations 2
ExecutionTime = 1.29154 s  ClockTime = 1 s

Time = 72s

smoothSolver:  Solving for Ux, Initial residual = 0.0156361, Final residual = 0.00105814, No Iterations 5
smoothSolver:  Solving for Uy, Initial residual = 0.0475685, Final residual = 0.00356202, No Iterations 5
GAMG:  Solving for p, Initial residual = 0.0833447, Final residual = 0.0049729, No Iterations 4
time step continuity errors : sum local = 0.73385, global = 0.0632185, cumulative = -0.571787
smoothSolver:  Solving for omega, Initial residual = 0.00914394, Final residual = 0.000369322, No Iterations 2
smoothSolver:  Solving for k, Initial residual = 0.0205732, Final residual = 0.00142304, No Iterations 2
ExecutionTime = 1.30441 s  ClockTime = 1 s

Time = 73s

smoothSolver:  Solving for Ux, Initial residual = 0.0155383, Final residual = 0.00104888, No Iterations 5
smoothSolver:  Solving for Uy, Initial residual = 0.0481868, Final residual = 0.00359267, No Iterations 5
GAMG:  Solving for p, Initial residual = 0.0805233, Final residual = 0.00792933, No Iterations 3
time step continuity errors : sum local = 1.17838, global = -0.104319, cumulative = -0.676106
smoothSolver:  Solving for omega, Initial residual = 0.146885, Final residual = 0.00308678, No Iterations 2
smoothSolver:  Solving for k, Initial residual = 0.0234402, Final residual = 0.0013454, No Iterations 2
ExecutionTime = 1.31688 s  ClockTime = 1 s

Time = 74s

smoothSolver:  Solving for Ux, Initial residual = 0.015603, Final residual = 0.00105462, No Iterations 5
smoothSolver:  Solving for Uy, Initial residual = 0.0491928, Final residual = 0.00365403, No Iterations 5
GAMG:  Solving for p, Initial residual = 0.0795129, Final residual = 0.00491568, No Iterations 4
time step continuity errors : sum local = 0.733888, global = -0.0607822, cumulative = -0.736889
smoothSolver:  Solving for omega, Initial residual = 0.737699, Final residual = 0.000252306, No Iterations 1
smoothSolver:  Solving for k, Initial residual = 0.0201282, Final residual = 0.00137577, No Iterations 2
ExecutionTime = 1.33061 s  ClockTime = 1 s

Time = 75s

smoothSolver:  Solving for Ux, Initial residual = 0.0155888, Final residual = 0.00105257, No Iterations 5
smoothSolver:  Solving for Uy, Initial residual = 0.0509051, Final residual = 0.00377758, No Iterations 5
GAMG:  Solving for p, Initial residual = 0.0778592, Final residual = 0.0049329, No Iterations 4
time step continuity errors : sum local = 0.734938, global = -0.0622757, cumulative = -0.799164
smoothSolver:  Solving for omega, Initial residual = 0.112549, Final residual = 0.00158559, No Iterations 1
smoothSolver:  Solving for k, Initial residual = 0.0200505, Final residual = 0.00138497, No Iterations 2
ExecutionTime = 1.34309 s  ClockTime = 1 s

Time = 76s

smoothSolver:  Solving for Ux, Initial residual = 0.0156908, Final residual = 0.00107059, No Iterations 5
smoothSolver:  Solving for Uy, Initial residual = 0.0528032, Final residual = 0.00392731, No Iterations 5
GAMG:  Solving for p, Initial residual = 0.0773645, Final residual = 0.00524581, No Iterations 4
time step continuity errors : sum local = 0.775689, global = -0.0654878, cumulative = -0.864652
smoothSolver:  Solving for omega, Initial residual = 0.0157743, Final residual = 0.00105042, No Iterations 2
smoothSolver:  Solving for k, Initial residual = 0.0202443, Final residual = 0.00142347, No Iterations 2
ExecutionTime = 1.3561 s  ClockTime = 1 s

Time = 77s

smoothSolver:  Solving for Ux, Initial residual = 0.015914, Final residual = 0.00109502, No Iterations 5
smoothSolver:  Solving for Uy, Initial residual = 0.0549739, Final residual = 0.00410405, No Iterations 5
GAMG:  Solving for p, Initial residual = 0.0774476, Final residual = 0.00569438, No Iterations 4
time step continuity errors : sum local = 0.830835, global = -0.0703249, cumulative = -0.934977
smoothSolver:  Solving for omega, Initial residual = 0.0117504, Final residual = 0.000326895, No Iterations 2
smoothSolver:  Solving for k, Initial residual = 0.0199709, Final residual = 0.00144123, No Iterations 2
ExecutionTime = 1.36913 s  ClockTime = 1 s

Time = 78s

smoothSolver:  Solving for Ux, Initial residual = 0.0160915, Final residual = 0.00111544, No Iterations 5
smoothSolver:  Solving for Uy, Initial residual = 0.0572685, Final residual = 0.00429761, No Iterations 5
GAMG:  Solving for p, Initial residual = 0.0779146, Final residual = 0.00623748, No Iterations 4
time step continuity errors : sum local = 0.894974, global = -0.0804472, cumulative = -1.01542
smoothSolver:  Solving for omega, Initial residual = 0.169871, Final residual = 0.00249081, No Iterations 2
smoothSolver:  Solving for k, Initial residual = 0.02318, Final residual = 0.00148083, No Iterations 2
ExecutionTime = 1.38217 s  ClockTime = 1 s

Time = 79s

smoothSolver:  Solving for Ux, Initial residual = 0.016231, Final residual = 0.00113216, No Iterations 5
smoothSolver:  Solving for Uy, Initial residual = 0.0593372, Final residual = 0.00448025, No Iterations 5
GAMG:  Solving for p, Initial residual = 0.079847, Final residual = 0.00664373, No Iterations 4
time step continuity errors : sum local = 0.936495, global = -0.0830643, cumulative = -1.09849
smoothSolver:  Solving for omega, Initial residual = 0.757006, Final residual = 0.000101743, No Iterations 1
smoothSolver:  Solving for k, Initial residual = 0.0200873, Final residual = 0.00158341, No Iterations 2
ExecutionTime = 1.39485 s  ClockTime = 2 s

Time = 80s

smoothSolver:  Solving for Ux, Initial residual = 0.0163025, Final residual = 0.00114427, No Iterations 5
smoothSolver:  Solving for Uy, Initial residual = 0.060978, Final residual = 0.00462964, No Iterations 5
GAMG:  Solving for p, Initial residual = 0.0814632, Final residual = 0.00702885, No Iterations 4
time step continuity errors : sum local = 0.976082, global = -0.085906, cumulative = -1.18439
smoothSolver:  Solving for omega, Initial residual = 0.147116, Final residual = 0.00126298, No Iterations 1
smoothSolver:  Solving for k, Initial residual = 0.0199633, Final residual = 0.00168197, No Iterations 2
ExecutionTime = 1.40759 s  ClockTime = 2 s

Time = 81s

smoothSolver:  Solving for Ux, Initial residual = 0.0163181, Final residual = 0.00115034, No Iterations 5
smoothSolver:  Solving for Uy, Initial residual = 0.0614772, Final residual = 0.00468806, No Iterations 5
GAMG:  Solving for p, Initial residual = 0.0824648, Final residual = 0.00723196, No Iterations 4
time step continuity errors : sum local = 0.993813, global = -0.0848453, cumulative = -1.26924
smoothSolver:  Solving for omega, Initial residual = 0.0158482, Final residual = 0.000922664, No Iterations 2
smoothSolver:  Solving for k, Initial residual = 0.0200643, Final residual = 0.00177439, No Iterations 2
ExecutionTime = 1.4205 s  ClockTime = 2 s

Time = 82s

smoothSolver:  Solving for Ux, Initial residual = 0.0163249, Final residual = 0.00115652, No Iterations 5
smoothSolver:  Solving for Uy, Initial residual = 0.060969, Final residual = 0.00466085, No Iterations 5
GAMG:  Solving for p, Initial residual = 0.0824057, Final residual = 0.00734621, No Iterations 4
time step continuity errors : sum local = 1.00475, global = -0.0796387, cumulative = -1.34888
smoothSolver:  Solving for omega, Initial residual = 0.0133268, Final residual = 0.000408737, No Iterations 2
smoothSolver:  Solving for k, Initial residual = 0.0197364, Final residual = 0.00181528, No Iterations 2
ExecutionTime = 1.4334 s  ClockTime = 2 s

Time = 83s

smoothSolver:  Solving for Ux, Initial residual = 0.0163186, Final residual = 0.00116259, No Iterations 5
smoothSolver:  Solving for Uy, Initial residual = 0.0598025, Final residual = 0.00457998, No Iterations 5
GAMG:  Solving for p, Initial residual = 0.0811644, Final residual = 0.00722249, No Iterations 4
time step continuity errors : sum local = 0.993608, global = -0.0715788, cumulative = -1.42046
smoothSolver:  Solving for omega, Initial residual = 0.151179, Final residual = 0.00298744, No Iterations 2
smoothSolver:  Solving for k, Initial residual = 0.0222455, Final residual = 0.00180529, No Iterations 2
ExecutionTime = 1.44633 s  ClockTime = 2 s

Time = 84s

smoothSolver:  Solving for Ux, Initial residual = 0.0162912, Final residual = 0.00117246, No Iterations 5
smoothSolver:  Solving for Uy, Initial residual = 0.0585447, Final residual = 0.00447909, No Iterations 5
GAMG:  Solving for p, Initial residual = 0.0795209, Final residual = 0.00711432, No Iterations 4
time step continuity errors : sum local = 0.9844, global = -0.0657233, cumulative = -1.48618
smoothSolver:  Solving for omega, Initial residual = 0.744325, Final residual = 0.000157241, No Iterations 1
smoothSolver:  Solving for k, Initial residual = 0.019348, Final residual = 0.00182992, No Iterations 2
ExecutionTime = 1.45865 s  ClockTime = 2 s

Time = 85s

smoothSolver:  Solving for Ux, Initial residual = 0.016285, Final residual = 0.00118781, No Iterations 5
smoothSolver:  Solving for Uy, Initial residual = 0.0576269, Final residual = 0.00439876, No Iterations 5
GAMG:  Solving for p, Initial residual = 0.0780738, Final residual = 0.00727011, No Iterations 4
time step continuity errors : sum local = 1.01531, global = -0.0632462, cumulative = -1.54943
smoothSolver:  Solving for omega, Initial residual = 0.119967, Final residual = 0.00146997, No Iterations 1
smoothSolver:  Solving for k, Initial residual = 0.0187788, Final residual = 0.00181376, No Iterations 2
ExecutionTime = 1.47352 s  ClockTime = 2 s

Time = 86s

smoothSolver:  Solving for Ux, Initial residual = 0.0163184, Final residual = 0.00120515, No Iterations 5
smoothSolver:  Solving for Uy, Initial residual = 0.0572263, Final residual = 0.00436778, No Iterations 5
GAMG:  Solving for p, Initial residual = 0.0764535, Final residual = 0.0075045, No Iterations 4
time step continuity errors : sum local = 1.06419, global = -0.0673001, cumulative = -1.61673
smoothSolver:  Solving for omega, Initial residual = 0.0152143, Final residual = 0.000873065, No Iterations 2
smoothSolver:  Solving for k, Initial residual = 0.018503, Final residual = 0.00173707, No Iterations 2
ExecutionTime = 1.48636 s  ClockTime = 2 s

Time = 87s

smoothSolver:  Solving for Ux, Initial residual = 0.0164154, Final residual = 0.00122543, No Iterations 5
smoothSolver:  Solving for Uy, Initial residual = 0.0571082, Final residual = 0.00436731, No Iterations 5
GAMG:  Solving for p, Initial residual = 0.0756428, Final residual = 0.00548007, No Iterations 5
time step continuity errors : sum local = 0.785048, global = 0.050175, cumulative = -1.56655
smoothSolver:  Solving for omega, Initial residual = 0.0133597, Final residual = 0.000431071, No Iterations 2
smoothSolver:  Solving for k, Initial residual = 0.0180926, Final residual = 0.00163236, No Iterations 2
ExecutionTime = 1.49972 s  ClockTime = 2 s

Time = 88s

smoothSolver:  Solving for Ux, Initial residual = 0.0165476, Final residual = 0.00124345, No Iterations 5
smoothSolver:  Solving for Uy, Initial residual = 0.0571257, Final residual = 0.00437614, No Iterations 5
GAMG:  Solving for p, Initial residual = 0.074919, Final residual = 0.00673701, No Iterations 4
time step continuity errors : sum local = 0.973212, global = -0.0476198, cumulative = -1.61417
smoothSolver:  Solving for omega, Initial residual = 0.175843, Final residual = 0.00288504, No Iterations 2
smoothSolver:  Solving for k, Initial residual = 0.0205866, Final residual = 0.00154771, No Iterations 2
ExecutionTime = 1.51351 s  ClockTime = 2 s

Time = 89s

smoothSolver:  Solving for Ux, Initial residual = 0.0167316, Final residual = 0.00127336, No Iterations 5
smoothSolver:  Solving for Uy, Initial residual = 0.0569323, Final residual = 0.00440144, No Iterations 5
GAMG:  Solving for p, Initial residual = 0.0755388, Final residual = 0.00557863, No Iterations 5
time step continuity errors : sum local = 0.81169, global = 0.0513446, cumulative = -1.56283
smoothSolver:  Solving for omega, Initial residual = 0.760495, Final residual = 0.000114024, No Iterations 1
smoothSolver:  Solving for k, Initial residual = 0.017166, Final residual = 0.00150072, No Iterations 2
ExecutionTime = 1.5271 s  ClockTime = 2 s

Time = 90s

smoothSolver:  Solving for Ux, Initial residual = 0.0169863, Final residual = 0.00130289, No Iterations 5
smoothSolver:  Solving for Uy, Initial residual = 0.05695, Final residual = 0.00444555, No Iterations 5
GAMG:  Solving for p, Initial residual = 0.076197, Final residual = 0.00702209, No Iterations 4
time step continuity errors : sum local = 1.02312, global = -0.0151127, cumulative = -1.57794
smoothSolver:  Solving for omega, Initial residual = 0.155189, Final residual = 0.00144977, No Iterations 1
smoothSolver:  Solving for k, Initial residual = 0.017352, Final residual = 0.00150607, No Iterations 2
ExecutionTime = 1.53983 s  ClockTime = 2 s

Time = 91s

smoothSolver:  Solving for Ux, Initial residual = 0.0172718, Final residual = 0.00133543, No Iterations 5
smoothSolver:  Solving for Uy, Initial residual = 0.0573044, Final residual = 0.00451309, No Iterations 5
GAMG:  Solving for p, Initial residual = 0.0785323, Final residual = 0.00778683, No Iterations 4
time step continuity errors : sum local = 1.13277, global = -0.0630381, cumulative = -1.64098
smoothSolver:  Solving for omega, Initial residual = 0.0164981, Final residual = 0.00114492, No Iterations 2
smoothSolver:  Solving for k, Initial residual = 0.0170239, Final residual = 0.0014408, No Iterations 2
ExecutionTime = 1.55269 s  ClockTime = 2 s

Time = 92s

smoothSolver:  Solving for Ux, Initial residual = 0.0176827, Final residual = 0.00137686, No Iterations 5
smoothSolver:  Solving for Uy, Initial residual = 0.0577297, Final residual = 0.00460205, No Iterations 5
GAMG:  Solving for p, Initial residual = 0.0797487, Final residual = 0.00659551, No Iterations 5
time step continuity errors : sum local = 0.95426, global = 0.0731524, cumulative = -1.56783
smoothSolver:  Solving for omega, Initial residual = 0.0131762, Final residual = 0.000469539, No Iterations 2
smoothSolver:  Solving for k, Initial residual = 0.0167753, Final residual = 0.00141392, No Iterations 2
ExecutionTime = 1.5664 s  ClockTime = 2 s

Time = 93s

smoothSolver:  Solving for Ux, Initial residual = 0.0179412, Final residual = 0.00140821, No Iterations 5
smoothSolver:  Solving for Uy, Initial residual = 0.0583797, Final residual = 0.00470512, No Iterations 5
GAMG:  Solving for p, Initial residual = 0.0814632, Final residual = 0.00798525, No Iterations 4
time step continuity errors : sum local = 1.14101, global = -0.0295565, cumulative = -1.59738
smoothSolver:  Solving for omega, Initial residual = 0.165089, Final residual = 0.00438958, No Iterations 2
smoothSolver:  Solving for k, Initial residual = 0.0193903, Final residual = 0.0014149, No Iterations 2
ExecutionTime = 1.57925 s  ClockTime = 2 s

Time = 94s

smoothSolver:  Solving for Ux, Initial residual = 0.0182314, Final residual = 0.00144302, No Iterations 5
smoothSolver:  Solving for Uy, Initial residual = 0.0591147, Final residual = 0.00482791, No Iterations 5
GAMG:  Solving for p, Initial residual = 0.0838616, Final residual = 0.00793014, No Iterations 4
time step continuity errors : sum local = 1.12352, global = -0.0781185, cumulative = -1.6755
smoothSolver:  Solving for omega, Initial residual = 0.744172, Final residual = 0.000215917, No Iterations 1
smoothSolver:  Solving for k, Initial residual = 0.0171569, Final residual = 0.00152024, No Iterations 2
ExecutionTime = 1.59326 s  ClockTime = 2 s

Time = 95s

smoothSolver:  Solving for Ux, Initial residual = 0.0185836, Final residual = 0.00147762, No Iterations 5
smoothSolver:  Solving for Uy, Initial residual = 0.0599011, Final residual = 0.00496038, No Iterations 5
GAMG:  Solving for p, Initial residual = 0.0862782, Final residual = 0.00699109, No Iterations 5
time step continuity errors : sum local = 0.965963, global = 0.0851819, cumulative = -1.59032
smoothSolver:  Solving for omega, Initial residual = 0.122859, Final residual = 0.00165006, No Iterations 1
smoothSolver:  Solving for k, Initial residual = 0.0174097, Final residual = 0.00164572, No Iterations 2
ExecutionTime = 1.60691 s  ClockTime = 2 s

Time = 96s

smoothSolver:  Solving for Ux, Initial residual = 0.0187332, Final residual = 0.00149734, No Iterations 5
smoothSolver:  Solving for Uy, Initial residual = 0.0607344, Final residual = 0.00509588, No Iterations 5
GAMG:  Solving for p, Initial residual = 0.0882357, Final residual = 0.00771226, No Iterations 4
time step continuity errors : sum local = 1.02849, global = 0.0477272, cumulative = -1.54259
smoothSolver:  Solving for omega, Initial residual = 0.0167238, Final residual = 0.0010982, No Iterations 2
smoothSolver:  Solving for k, Initial residual = 0.0179475, Final residual = 0.00176735, No Iterations 2
ExecutionTime = 1.61969 s  ClockTime = 2 s

Time = 97s

smoothSolver:  Solving for Ux, Initial residual = 0.0189395, Final residual = 0.00152703, No Iterations 5
smoothSolver:  Solving for Uy, Initial residual = 0.061434, Final residual = 0.00523128, No Iterations 5
GAMG:  Solving for p, Initial residual = 0.0898983, Final residual = 0.00811551, No Iterations 4
time step continuity errors : sum local = 1.04793, global = 0.04807, cumulative = -1.49452
smoothSolver:  Solving for omega, Initial residual = 0.0956262, Final residual = 0.00208962, No Iterations 2
smoothSolver:  Solving for k, Initial residual = 0.0195262, Final residual = 0.00186546, No Iterations 2
ExecutionTime = 1.63259 s  ClockTime = 2 s

Time = 98s

smoothSolver:  Solving for Ux, Initial residual = 0.019056, Final residual = 0.00155017, No Iterations 5
smoothSolver:  Solving for Uy, Initial residual = 0.0620024, Final residual = 0.00534748, No Iterations 5
GAMG:  Solving for p, Initial residual = 0.0917945, Final residual = 0.00868736, No Iterations 4
time step continuity errors : sum local = 1.07957, global = 0.0625049, cumulative = -1.43202
smoothSolver:  Solving for omega, Initial residual = 0.631957, Final residual = 0.00495413, No Iterations 1
smoothSolver:  Solving for k, Initial residual = 0.0215382, Final residual = 0.00201118, No Iterations 2
ExecutionTime = 1.64522 s  ClockTime = 2 s

Time = 99s

smoothSolver:  Solving for Ux, Initial residual = 0.0190619, Final residual = 0.00156751, No Iterations 5
smoothSolver:  Solving for Uy, Initial residual = 0.0625866, Final residual = 0.00544571, No Iterations 5
GAMG:  Solving for p, Initial residual = 0.0945016, Final residual = 0.00754827, No Iterations 5
time step continuity errors : sum local = 0.89165, global = -0.0629325, cumulative = -1.49495
smoothSolver:  Solving for omega, Initial residual = 0.760582, Final residual = 0.000148235, No Iterations 1
smoothSolver:  Solving for k, Initial residual = 0.0196408, Final residual = 0.0011345, No Iterations 3
ExecutionTime = 1.65866 s  ClockTime = 2 s

Time = 100s

smoothSolver:  Solving for Ux, Initial residual = 0.0190002, Final residual = 0.00157614, No Iterations 5
smoothSolver:  Solving for Uy, Initial residual = 0.0631864, Final residual = 0.00553096, No Iterations 5
GAMG:  Solving for p, Initial residual = 0.0957566, Final residual = 0.0088362, No Iterations 4
time step continuity errors : sum local = 0.994743, global = 0.0807962, cumulative = -1.41415
smoothSolver:  Solving for omega, Initial residual = 0.163525, Final residual = 0.0028446, No Iterations 1
smoothSolver:  Solving for k, Initial residual = 0.0201457, Final residual = 0.00120597, No Iterations 3
ExecutionTime = 1.6914 s  ClockTime = 2 s

streamlines streamlines write:
    Seeded 10 particles
    Sampled 13030 locations

Time = 101s

smoothSolver:  Solving for Ux, Initial residual = 0.0189428, Final residual = 0.00159305, No Iterations 5
smoothSolver:  Solving for Uy, Initial residual = 0.0633926, Final residual = 0.00559049, No Iterations 5
GAMG:  Solving for p, Initial residual = 0.0971992, Final residual = 0.00793922, No Iterations 5
time step continuity errors : sum local = 0.849247, global = -0.0736928, cumulative = -1.48785
smoothSolver:  Solving for omega, Initial residual = 0.0168661, Final residual = 0.000573763, No Iterations 2
smoothSolver:  Solving for k, Initial residual = 0.0203102, Final residual = 0.00124368, No Iterations 3
ExecutionTime = 1.76317 s  ClockTime = 2 s

Time = 102s

smoothSolver:  Solving for Ux, Initial residual = 0.0187747, Final residual = 0.00159365, No Iterations 5
smoothSolver:  Solving for Uy, Initial residual = 0.0635195, Final residual = 0.00562286, No Iterations 5
GAMG:  Solving for p, Initial residual = 0.0965769, Final residual = 0.00872501, No Iterations 4
time step continuity errors : sum local = 0.875099, global = 0.100595, cumulative = -1.38725
smoothSolver:  Solving for omega, Initial residual = 0.161019, Final residual = 0.00620571, No Iterations 2
smoothSolver:  Solving for k, Initial residual = 0.0228967, Final residual = 0.001243, No Iterations 3
ExecutionTime = 1.77593 s  ClockTime = 2 s

Time = 103s

smoothSolver:  Solving for Ux, Initial residual = 0.0185329, Final residual = 0.00159217, No Iterations 5
smoothSolver:  Solving for Uy, Initial residual = 0.0634129, Final residual = 0.00564782, No Iterations 5
GAMG:  Solving for p, Initial residual = 0.096928, Final residual = 0.00747542, No Iterations 5
time step continuity errors : sum local = 0.705821, global = -0.0927582, cumulative = -1.48001
smoothSolver:  Solving for omega, Initial residual = 0.751755, Final residual = 0.00129546, No Iterations 1
smoothSolver:  Solving for k, Initial residual = 0.0233944, Final residual = 0.0012696, No Iterations 3
ExecutionTime = 1.78895 s  ClockTime = 2 s

Time = 104s

smoothSolver:  Solving for Ux, Initial residual = 0.0183541, Final residual = 0.00158505, No Iterations 5
smoothSolver:  Solving for Uy, Initial residual = 0.0634705, Final residual = 0.00567437, No Iterations 5
GAMG:  Solving for p, Initial residual = 0.0957538, Final residual = 0.00734627, No Iterations 4
time step continuity errors : sum local = 0.662314, global = 0.0607473, cumulative = -1.41926
smoothSolver:  Solving for omega, Initial residual = 0.748668, Final residual = 0.000247425, No Iterations 1
smoothSolver:  Solving for k, Initial residual = 0.021095, Final residual = 0.0013339, No Iterations 3
ExecutionTime = 1.80145 s  ClockTime = 2 s

Time = 105s

smoothSolver:  Solving for Ux, Initial residual = 0.0181825, Final residual = 0.00157306, No Iterations 5
smoothSolver:  Solving for Uy, Initial residual = 0.0633428, Final residual = 0.00569571, No Iterations 5
GAMG:  Solving for p, Initial residual = 0.0959903, Final residual = 0.00821571, No Iterations 4
time step continuity errors : sum local = 0.710182, global = 0.116342, cumulative = -1.30292
smoothSolver:  Solving for omega, Initial residual = 0.13462, Final residual = 0.00230652, No Iterations 1
smoothSolver:  Solving for k, Initial residual = 0.0212882, Final residual = 0.00135853, No Iterations 3
ExecutionTime = 1.81391 s  ClockTime = 2 s

Time = 106s

smoothSolver:  Solving for Ux, Initial residual = 0.0179193, Final residual = 0.00155406, No Iterations 5
smoothSolver:  Solving for Uy, Initial residual = 0.0632936, Final residual = 0.00572512, No Iterations 5
GAMG:  Solving for p, Initial residual = 0.0982417, Final residual = 0.00890884, No Iterations 4
time step continuity errors : sum local = 0.738022, global = 0.136831, cumulative = -1.16609
smoothSolver:  Solving for omega, Initial residual = 0.0171897, Final residual = 0.000595204, No Iterations 2
smoothSolver:  Solving for k, Initial residual = 0.0215828, Final residual = 0.00135942, No Iterations 3
ExecutionTime = 1.82761 s  ClockTime = 2 s

Time = 107s

smoothSolver:  Solving for Ux, Initial residual = 0.0177218, Final residual = 0.0015344, No Iterations 5
smoothSolver:  Solving for Uy, Initial residual = 0.0631083, Final residual = 0.00575932, No Iterations 5
GAMG:  Solving for p, Initial residual = 0.0976124, Final residual = 0.00896343, No Iterations 4
time step continuity errors : sum local = 0.721411, global = 0.145929, cumulative = -1.02016
smoothSolver:  Solving for omega, Initial residual = 0.117941, Final residual = 0.00479799, No Iterations 2
smoothSolver:  Solving for k, Initial residual = 0.0231454, Final residual = 0.00134099, No Iterations 3
ExecutionTime = 1.84039 s  ClockTime = 2 s

Time = 108s

smoothSolver:  Solving for Ux, Initial residual = 0.0174436, Final residual = 0.00150586, No Iterations 5
smoothSolver:  Solving for Uy, Initial residual = 0.0631349, Final residual = 0.00583117, No Iterations 5
GAMG:  Solving for p, Initial residual = 0.0958114, Final residual = 0.00848954, No Iterations 4
time step continuity errors : sum local = 0.670804, global = 0.130307, cumulative = -0.889853
smoothSolver:  Solving for omega, Initial residual = 0.698509, Final residual = 0.00234219, No Iterations 1
smoothSolver:  Solving for k, Initial residual = 0.0238497, Final residual = 0.00135713, No Iterations 3
ExecutionTime = 1.85375 s  ClockTime = 2 s

Time = 109s

smoothSolver:  Solving for Ux, Initial residual = 0.0171689, Final residual = 0.00147966, No Iterations 5
smoothSolver:  Solving for Uy, Initial residual = 0.0635774, Final residual = 0.00593102, No Iterations 5
GAMG:  Solving for p, Initial residual = 0.094841, Final residual = 0.00809001, No Iterations 4
time step continuity errors : sum local = 0.632241, global = 0.110738, cumulative = -0.779115
smoothSolver:  Solving for omega, Initial residual = 0.735755, Final residual = 0.000263597, No Iterations 1
smoothSolver:  Solving for k, Initial residual = 0.0220878, Final residual = 0.00139067, No Iterations 3
ExecutionTime = 1.86621 s  ClockTime = 2 s

Time = 110s

smoothSolver:  Solving for Ux, Initial residual = 0.0169183, Final residual = 0.00145468, No Iterations 5
smoothSolver:  Solving for Uy, Initial residual = 0.0640336, Final residual = 0.00602709, No Iterations 5
GAMG:  Solving for p, Initial residual = 0.0936973, Final residual = 0.00788611, No Iterations 4
time step continuity errors : sum local = 0.613501, global = 0.0931375, cumulative = -0.685978
smoothSolver:  Solving for omega, Initial residual = 0.111634, Final residual = 0.00273818, No Iterations 1
smoothSolver:  Solving for k, Initial residual = 0.0222844, Final residual = 0.00140301, No Iterations 3
ExecutionTime = 1.87993 s  ClockTime = 2 s

Time = 111s

smoothSolver:  Solving for Ux, Initial residual = 0.0166831, Final residual = 0.00143348, No Iterations 5
smoothSolver:  Solving for Uy, Initial residual = 0.0646481, Final residual = 0.00612554, No Iterations 5
GAMG:  Solving for p, Initial residual = 0.0918872, Final residual = 0.00786194, No Iterations 4
time step continuity errors : sum local = 0.616389, global = 0.0817395, cumulative = -0.604238
smoothSolver:  Solving for omega, Initial residual = 0.0185102, Final residual = 0.00099577, No Iterations 2
smoothSolver:  Solving for k, Initial residual = 0.0224671, Final residual = 0.00139316, No Iterations 3
ExecutionTime = 1.89254 s  ClockTime = 2 s

Time = 112s

smoothSolver:  Solving for Ux, Initial residual = 0.0165317, Final residual = 0.00142032, No Iterations 5
smoothSolver:  Solving for Uy, Initial residual = 0.0654138, Final residual = 0.00621981, No Iterations 5
GAMG:  Solving for p, Initial residual = 0.0908803, Final residual = 0.00787599, No Iterations 4
time step continuity errors : sum local = 0.626532, global = 0.0767208, cumulative = -0.527518
smoothSolver:  Solving for omega, Initial residual = 0.0891551, Final residual = 0.00787557, No Iterations 2
smoothSolver:  Solving for k, Initial residual = 0.023706, Final residual = 0.00137775, No Iterations 3
ExecutionTime = 1.90527 s  ClockTime = 2 s

Time = 113s

smoothSolver:  Solving for Ux, Initial residual = 0.0163725, Final residual = 0.0014098, No Iterations 5
smoothSolver:  Solving for Uy, Initial residual = 0.066119, Final residual = 0.00631144, No Iterations 5
GAMG:  Solving for p, Initial residual = 0.0892496, Final residual = 0.00783265, No Iterations 4
time step continuity errors : sum local = 0.633076, global = 0.0778429, cumulative = -0.449675
smoothSolver:  Solving for omega, Initial residual = 0.533204, Final residual = 0.00785945, No Iterations 1
smoothSolver:  Solving for k, Initial residual = 0.0253074, Final residual = 0.00135343, No Iterations 3
ExecutionTime = 1.91888 s  ClockTime = 2 s

Time = 114s

smoothSolver:  Solving for Ux, Initial residual = 0.0162539, Final residual = 0.00140086, No Iterations 5
smoothSolver:  Solving for Uy, Initial residual = 0.0666942, Final residual = 0.0063917, No Iterations 5
GAMG:  Solving for p, Initial residual = 0.0882442, Final residual = 0.00771426, No Iterations 4
time step continuity errors : sum local = 0.63294, global = 0.0840527, cumulative = -0.365622
smoothSolver:  Solving for omega, Initial residual = 0.756999, Final residual = 0.000144531, No Iterations 1
smoothSolver:  Solving for k, Initial residual = 0.0231084, Final residual = 0.00138562, No Iterations 3
ExecutionTime = 1.9313 s  ClockTime = 2 s

Time = 115s

smoothSolver:  Solving for Ux, Initial residual = 0.01618, Final residual = 0.00139651, No Iterations 5
smoothSolver:  Solving for Uy, Initial residual = 0.0673413, Final residual = 0.0064616, No Iterations 5
GAMG:  Solving for p, Initial residual = 0.0872242, Final residual = 0.00745743, No Iterations 4
time step continuity errors : sum local = 0.620081, global = 0.0897458, cumulative = -0.275876
smoothSolver:  Solving for omega, Initial residual = 0.14446, Final residual = 0.0017274, No Iterations 1
smoothSolver:  Solving for k, Initial residual = 0.0233923, Final residual = 0.00138234, No Iterations 3
ExecutionTime = 1.94416 s  ClockTime = 2 s

Time = 116s

smoothSolver:  Solving for Ux, Initial residual = 0.0161622, Final residual = 0.00139648, No Iterations 5
smoothSolver:  Solving for Uy, Initial residual = 0.0678826, Final residual = 0.00651705, No Iterations 5
[...]
GAMG:  Solving for p, Initial residual = 0.0147324, Final residual = 0.0014208, No Iterations 2
time step continuity errors : sum local = 0.0580433, global = -0.000703229, cumulative = 0.892688
smoothSolver:  Solving for omega, Initial residual = 0.132484, Final residual = 0.000971832, No Iterations 1
smoothSolver:  Solving for k, Initial residual = 0.00221812, Final residual = 0.000104816, No Iterations 2
ExecutionTime = 25.9892 s  ClockTime = 27 s

Time = 1973s

smoothSolver:  Solving for Ux, Initial residual = 0.000577592, Final residual = 5.66322e-05, No Iterations 4
smoothSolver:  Solving for Uy, Initial residual = 0.00814785, Final residual = 0.000544554, No Iterations 5
GAMG:  Solving for p, Initial residual = 0.0131981, Final residual = 0.000784658, No Iterations 3
time step continuity errors : sum local = 0.0320249, global = 0.00491324, cumulative = 0.897601
smoothSolver:  Solving for omega, Initial residual = 0.0132664, Final residual = 0.000698077, No Iterations 2
smoothSolver:  Solving for k, Initial residual = 0.0021398, Final residual = 0.000104673, No Iterations 2
ExecutionTime = 26.0017 s  ClockTime = 27 s

Time = 1974s

smoothSolver:  Solving for Ux, Initial residual = 0.000564599, Final residual = 5.50341e-05, No Iterations 4
smoothSolver:  Solving for Uy, Initial residual = 0.00813674, Final residual = 0.000540696, No Iterations 5
GAMG:  Solving for p, Initial residual = 0.0127119, Final residual = 0.00115991, No Iterations 2
time step continuity errors : sum local = 0.0473341, global = 0.00243835, cumulative = 0.900039
smoothSolver:  Solving for omega, Initial residual = 0.00732896, Final residual = 0.000684738, No Iterations 1
smoothSolver:  Solving for k, Initial residual = 0.00218941, Final residual = 0.00010019, No Iterations 2
ExecutionTime = 26.0142 s  ClockTime = 27 s

Time = 1975s

smoothSolver:  Solving for Ux, Initial residual = 0.000572401, Final residual = 5.47961e-05, No Iterations 4
smoothSolver:  Solving for Uy, Initial residual = 0.00804536, Final residual = 0.000527059, No Iterations 5
GAMG:  Solving for p, Initial residual = 0.0121626, Final residual = 0.000721279, No Iterations 3
time step continuity errors : sum local = 0.029329, global = -0.00315085, cumulative = 0.896888
smoothSolver:  Solving for omega, Initial residual = 0.00473741, Final residual = 0.000243211, No Iterations 2
smoothSolver:  Solving for k, Initial residual = 0.00221266, Final residual = 9.48806e-05, No Iterations 2
ExecutionTime = 26.0269 s  ClockTime = 27 s

Time = 1976s

smoothSolver:  Solving for Ux, Initial residual = 0.000551201, Final residual = 5.304e-05, No Iterations 4
smoothSolver:  Solving for Uy, Initial residual = 0.00792885, Final residual = 0.000517177, No Iterations 5
GAMG:  Solving for p, Initial residual = 0.0122266, Final residual = 0.00102534, No Iterations 2
time step continuity errors : sum local = 0.0416218, global = -0.00172087, cumulative = 0.895168
smoothSolver:  Solving for omega, Initial residual = 0.00323363, Final residual = 0.000124285, No Iterations 2
smoothSolver:  Solving for k, Initial residual = 0.00214463, Final residual = 8.88859e-05, No Iterations 2
ExecutionTime = 26.0389 s  ClockTime = 27 s

Time = 1977s

smoothSolver:  Solving for Ux, Initial residual = 0.000536142, Final residual = 5.26332e-05, No Iterations 4
smoothSolver:  Solving for Uy, Initial residual = 0.00749249, Final residual = 0.0004999, No Iterations 5
GAMG:  Solving for p, Initial residual = 0.0121713, Final residual = 0.00120232, No Iterations 2
time step continuity errors : sum local = 0.0487336, global = -0.00345662, cumulative = 0.891711
smoothSolver:  Solving for omega, Initial residual = 0.0041064, Final residual = 0.00016855, No Iterations 2
smoothSolver:  Solving for k, Initial residual = 0.00231062, Final residual = 9.57266e-05, No Iterations 2
ExecutionTime = 26.0517 s  ClockTime = 27 s

Time = 1978s

smoothSolver:  Solving for Ux, Initial residual = 0.000525385, Final residual = 5.08206e-05, No Iterations 4
smoothSolver:  Solving for Uy, Initial residual = 0.00736259, Final residual = 0.000487099, No Iterations 5
GAMG:  Solving for p, Initial residual = 0.0119049, Final residual = 0.000694755, No Iterations 3
time step continuity errors : sum local = 0.028227, global = 0.00483861, cumulative = 0.89655
smoothSolver:  Solving for omega, Initial residual = 0.0391444, Final residual = 0.000357989, No Iterations 1
smoothSolver:  Solving for k, Initial residual = 0.00216193, Final residual = 9.07677e-05, No Iterations 2
ExecutionTime = 26.0643 s  ClockTime = 27 s

Time = 1979s

smoothSolver:  Solving for Ux, Initial residual = 0.000509375, Final residual = 4.9131e-05, No Iterations 4
smoothSolver:  Solving for Uy, Initial residual = 0.00716796, Final residual = 0.00047625, No Iterations 5
GAMG:  Solving for p, Initial residual = 0.0110803, Final residual = 0.000594072, No Iterations 3
time step continuity errors : sum local = 0.0240525, global = -0.00458927, cumulative = 0.89196
smoothSolver:  Solving for omega, Initial residual = 0.00300423, Final residual = 9.16525e-05, No Iterations 2
smoothSolver:  Solving for k, Initial residual = 0.00214432, Final residual = 8.14521e-05, No Iterations 2
ExecutionTime = 26.0764 s  ClockTime = 27 s

Time = 1980s

smoothSolver:  Solving for Ux, Initial residual = 0.000492454, Final residual = 4.78617e-05, No Iterations 4
smoothSolver:  Solving for Uy, Initial residual = 0.00690885, Final residual = 0.000464629, No Iterations 5
GAMG:  Solving for p, Initial residual = 0.0110489, Final residual = 0.00101249, No Iterations 2
time step continuity errors : sum local = 0.0408588, global = -0.00341646, cumulative = 0.888544
smoothSolver:  Solving for omega, Initial residual = 0.00229983, Final residual = 7.71088e-05, No Iterations 2
smoothSolver:  Solving for k, Initial residual = 0.00209276, Final residual = 8.93838e-05, No Iterations 2
ExecutionTime = 26.0893 s  ClockTime = 27 s

Time = 1981s

smoothSolver:  Solving for Ux, Initial residual = 0.000479799, Final residual = 4.69197e-05, No Iterations 4
smoothSolver:  Solving for Uy, Initial residual = 0.00668256, Final residual = 0.000451419, No Iterations 5
GAMG:  Solving for p, Initial residual = 0.0106877, Final residual = 0.000600593, No Iterations 3
time step continuity errors : sum local = 0.024184, global = 0.00269672, cumulative = 0.891241
smoothSolver:  Solving for omega, Initial residual = 0.00220946, Final residual = 8.09969e-05, No Iterations 2
smoothSolver:  Solving for k, Initial residual = 0.00197723, Final residual = 7.65122e-05, No Iterations 2
ExecutionTime = 26.1025 s  ClockTime = 27 s

Time = 1982s

smoothSolver:  Solving for Ux, Initial residual = 0.000457257, Final residual = 4.50216e-05, No Iterations 4
smoothSolver:  Solving for Uy, Initial residual = 0.00644368, Final residual = 0.000438479, No Iterations 5
GAMG:  Solving for p, Initial residual = 0.0106604, Final residual = 0.0010573, No Iterations 2
time step continuity errors : sum local = 0.042483, global = 0.00258246, cumulative = 0.893823
smoothSolver:  Solving for omega, Initial residual = 0.00195485, Final residual = 7.44256e-05, No Iterations 2
smoothSolver:  Solving for k, Initial residual = 0.00217082, Final residual = 8.81811e-05, No Iterations 2
ExecutionTime = 26.1143 s  ClockTime = 27 s

Time = 1983s

smoothSolver:  Solving for Ux, Initial residual = 0.000454317, Final residual = 4.43346e-05, No Iterations 4
smoothSolver:  Solving for Uy, Initial residual = 0.0063315, Final residual = 0.000429017, No Iterations 5
GAMG:  Solving for p, Initial residual = 0.0107658, Final residual = 0.000511006, No Iterations 3
time step continuity errors : sum local = 0.0205057, global = -0.00238755, cumulative = 0.891435
smoothSolver:  Solving for omega, Initial residual = 0.00183909, Final residual = 6.82369e-05, No Iterations 2
smoothSolver:  Solving for k, Initial residual = 0.00208392, Final residual = 8.08383e-05, No Iterations 2
ExecutionTime = 26.1275 s  ClockTime = 27 s

Time = 1984s

smoothSolver:  Solving for Ux, Initial residual = 0.000430421, Final residual = 2.67424e-05, No Iterations 5
smoothSolver:  Solving for Uy, Initial residual = 0.00602713, Final residual = 0.000417418, No Iterations 5
GAMG:  Solving for p, Initial residual = 0.00988763, Final residual = 0.000948676, No Iterations 2
time step continuity errors : sum local = 0.0380721, global = 9.57385e-05, cumulative = 0.891531
smoothSolver:  Solving for omega, Initial residual = 0.00167662, Final residual = 6.08082e-05, No Iterations 2
smoothSolver:  Solving for k, Initial residual = 0.00197542, Final residual = 8.24075e-05, No Iterations 2
ExecutionTime = 26.1389 s  ClockTime = 27 s

Time = 1985s

smoothSolver:  Solving for Ux, Initial residual = 0.000414348, Final residual = 2.59727e-05, No Iterations 5
smoothSolver:  Solving for Uy, Initial residual = 0.00586165, Final residual = 0.000411639, No Iterations 5
GAMG:  Solving for p, Initial residual = 0.00883118, Final residual = 0.000463636, No Iterations 3
time step continuity errors : sum local = 0.0186341, global = -0.00175124, cumulative = 0.88978
smoothSolver:  Solving for omega, Initial residual = 0.00586759, Final residual = 0.000193939, No Iterations 2
smoothSolver:  Solving for k, Initial residual = 0.00209197, Final residual = 7.1814e-05, No Iterations 2
ExecutionTime = 26.151 s  ClockTime = 27 s

Time = 1986s

smoothSolver:  Solving for Ux, Initial residual = 0.000421158, Final residual = 4.06124e-05, No Iterations 4
smoothSolver:  Solving for Uy, Initial residual = 0.00581211, Final residual = 0.000404556, No Iterations 5
GAMG:  Solving for p, Initial residual = 0.0111714, Final residual = 0.00101208, No Iterations 2
time step continuity errors : sum local = 0.0408331, global = -0.000597885, cumulative = 0.889182
smoothSolver:  Solving for omega, Initial residual = 0.332573, Final residual = 0.00999098, No Iterations 1
smoothSolver:  Solving for k, Initial residual = 0.00465285, Final residual = 0.000330359, No Iterations 1
ExecutionTime = 26.163 s  ClockTime = 27 s

Time = 1987s

smoothSolver:  Solving for Ux, Initial residual = 0.000455199, Final residual = 4.18503e-05, No Iterations 4
smoothSolver:  Solving for Uy, Initial residual = 0.00573037, Final residual = 0.000396415, No Iterations 5
GAMG:  Solving for p, Initial residual = 0.0114886, Final residual = 0.00054663, No Iterations 3
time step continuity errors : sum local = 0.0220952, global = -0.0038555, cumulative = 0.885327
smoothSolver:  Solving for omega, Initial residual = 0.742281, Final residual = 0.000129612, No Iterations 1
smoothSolver:  Solving for k, Initial residual = 0.00244781, Final residual = 8.28272e-05, No Iterations 2
ExecutionTime = 26.1748 s  ClockTime = 27 s

Time = 1988s

smoothSolver:  Solving for Ux, Initial residual = 0.00045679, Final residual = 4.15436e-05, No Iterations 4
smoothSolver:  Solving for Uy, Initial residual = 0.00594943, Final residual = 0.000390646, No Iterations 5
GAMG:  Solving for p, Initial residual = 0.0127057, Final residual = 0.0010602, No Iterations 2
time step continuity errors : sum local = 0.0425957, global = -0.0016919, cumulative = 0.883635
smoothSolver:  Solving for omega, Initial residual = 0.11155, Final residual = 0.00080219, No Iterations 1
smoothSolver:  Solving for k, Initial residual = 0.00213663, Final residual = 8.02814e-05, No Iterations 2
ExecutionTime = 26.1859 s  ClockTime = 27 s

Time = 1989s

smoothSolver:  Solving for Ux, Initial residual = 0.000439013, Final residual = 4.22233e-05, No Iterations 4
smoothSolver:  Solving for Uy, Initial residual = 0.00561682, Final residual = 0.00038287, No Iterations 5
GAMG:  Solving for p, Initial residual = 0.0112917, Final residual = 0.000536083, No Iterations 3
time step continuity errors : sum local = 0.0214529, global = -0.00241048, cumulative = 0.881224
smoothSolver:  Solving for omega, Initial residual = 0.0106756, Final residual = 0.000817595, No Iterations 2
smoothSolver:  Solving for k, Initial residual = 0.0021921, Final residual = 9.08105e-05, No Iterations 2
ExecutionTime = 26.1988 s  ClockTime = 27 s

Time = 1990s

smoothSolver:  Solving for Ux, Initial residual = 0.000422116, Final residual = 4.20865e-05, No Iterations 4
smoothSolver:  Solving for Uy, Initial residual = 0.00561372, Final residual = 0.000378738, No Iterations 5
GAMG:  Solving for p, Initial residual = 0.0108362, Final residual = 0.000933778, No Iterations 2
time step continuity errors : sum local = 0.037336, global = -0.000657336, cumulative = 0.880567
smoothSolver:  Solving for omega, Initial residual = 0.00575633, Final residual = 0.000473787, No Iterations 1
smoothSolver:  Solving for k, Initial residual = 0.00231421, Final residual = 8.19122e-05, No Iterations 2
ExecutionTime = 26.2098 s  ClockTime = 27 s

Time = 1991s

smoothSolver:  Solving for Ux, Initial residual = 0.000439004, Final residual = 4.35439e-05, No Iterations 4
smoothSolver:  Solving for Uy, Initial residual = 0.00556492, Final residual = 0.00037894, No Iterations 5
GAMG:  Solving for p, Initial residual = 0.0112517, Final residual = 0.00107992, No Iterations 2
time step continuity errors : sum local = 0.0431793, global = 0.000442598, cumulative = 0.881009
smoothSolver:  Solving for omega, Initial residual = 0.0935033, Final residual = 0.00241292, No Iterations 2
smoothSolver:  Solving for k, Initial residual = 0.0034516, Final residual = 0.000293568, No Iterations 1
bounding k, min: -0.00019589 max: 5.04792 average: 1.36756
ExecutionTime = 26.2221 s  ClockTime = 27 s

Time = 1992s

smoothSolver:  Solving for Ux, Initial residual = 0.000439773, Final residual = 2.76461e-05, No Iterations 5
smoothSolver:  Solving for Uy, Initial residual = 0.00547722, Final residual = 0.000377233, No Iterations 5
GAMG:  Solving for p, Initial residual = 0.0112642, Final residual = 0.000579861, No Iterations 3
time step continuity errors : sum local = 0.0231401, global = -0.00313201, cumulative = 0.877877
smoothSolver:  Solving for omega, Initial residual = 0.631535, Final residual = 0.000513114, No Iterations 1
smoothSolver:  Solving for k, Initial residual = 0.00230535, Final residual = 8.10089e-05, No Iterations 2
ExecutionTime = 26.2338 s  ClockTime = 27 s

Time = 1993s

smoothSolver:  Solving for Ux, Initial residual = 0.000452618, Final residual = 4.3884e-05, No Iterations 4
smoothSolver:  Solving for Uy, Initial residual = 0.00578762, Final residual = 0.000391182, No Iterations 5
GAMG:  Solving for p, Initial residual = 0.0108694, Final residual = 0.000966979, No Iterations 2
time step continuity errors : sum local = 0.0385007, global = -0.00123227, cumulative = 0.876645
smoothSolver:  Solving for omega, Initial residual = 0.313125, Final residual = 0.0222131, No Iterations 2
smoothSolver:  Solving for k, Initial residual = 0.00287969, Final residual = 8.34641e-05, No Iterations 2
ExecutionTime = 26.245 s  ClockTime = 27 s

Time = 1994s

smoothSolver:  Solving for Ux, Initial residual = 0.000642547, Final residual = 4.86078e-05, No Iterations 4
smoothSolver:  Solving for Uy, Initial residual = 0.00660261, Final residual = 0.00063346, No Iterations 4
GAMG:  Solving for p, Initial residual = 0.0135744, Final residual = 0.00132691, No Iterations 2
time step continuity errors : sum local = 0.0529216, global = -0.000867293, cumulative = 0.875778
smoothSolver:  Solving for omega, Initial residual = 0.769227, Final residual = 0.00444685, No Iterations 1
smoothSolver:  Solving for k, Initial residual = 0.00316866, Final residual = 0.000307286, No Iterations 1
ExecutionTime = 26.2568 s  ClockTime = 27 s

Time = 1995s

smoothSolver:  Solving for Ux, Initial residual = 0.000531835, Final residual = 4.64614e-05, No Iterations 4
smoothSolver:  Solving for Uy, Initial residual = 0.00659079, Final residual = 0.000632206, No Iterations 4
GAMG:  Solving for p, Initial residual = 0.014979, Final residual = 0.00139485, No Iterations 2
time step continuity errors : sum local = 0.055672, global = -0.000629313, cumulative = 0.875149
smoothSolver:  Solving for omega, Initial residual = 0.814749, Final residual = 0.00156613, No Iterations 1
smoothSolver:  Solving for k, Initial residual = 0.0161598, Final residual = 0.000286959, No Iterations 1
bounding k, min: -0.0142528 max: 5.05392 average: 1.3651
ExecutionTime = 26.2675 s  ClockTime = 27 s

Time = 1996s

smoothSolver:  Solving for Ux, Initial residual = 0.000625706, Final residual = 4.74181e-05, No Iterations 4
smoothSolver:  Solving for Uy, Initial residual = 0.00660982, Final residual = 0.000640399, No Iterations 4
GAMG:  Solving for p, Initial residual = 0.0164517, Final residual = 0.00156154, No Iterations 2
time step continuity errors : sum local = 0.0624473, global = -0.000590024, cumulative = 0.874559
smoothSolver:  Solving for omega, Initial residual = 0.816268, Final residual = 1.7829e-05, No Iterations 1
smoothSolver:  Solving for k, Initial residual = 0.0126909, Final residual = 0.000245054, No Iterations 1
bounding k, min: -0.0014649 max: 5.05456 average: 1.36497
ExecutionTime = 26.2792 s  ClockTime = 27 s

Time = 1997s

smoothSolver:  Solving for Ux, Initial residual = 0.000567279, Final residual = 4.80762e-05, No Iterations 4
smoothSolver:  Solving for Uy, Initial residual = 0.00650435, Final residual = 0.000412428, No Iterations 5
GAMG:  Solving for p, Initial residual = 0.015771, Final residual = 0.000859706, No Iterations 3
time step continuity errors : sum local = 0.034562, global = -0.000995249, cumulative = 0.873563
smoothSolver:  Solving for omega, Initial residual = 0.81724, Final residual = 3.72568e-05, No Iterations 1
smoothSolver:  Solving for k, Initial residual = 0.00241178, Final residual = 0.000167983, No Iterations 1
bounding k, min: -6.84358e-05 max: 5.05517 average: 1.36412
ExecutionTime = 26.2907 s  ClockTime = 27 s

Time = 1998s

smoothSolver:  Solving for Ux, Initial residual = 0.000531827, Final residual = 4.85952e-05, No Iterations 4
smoothSolver:  Solving for Uy, Initial residual = 0.00657431, Final residual = 0.000420102, No Iterations 5
GAMG:  Solving for p, Initial residual = 0.0146764, Final residual = 0.00133838, No Iterations 2
time step continuity errors : sum local = 0.0534994, global = 0.000137843, cumulative = 0.873701
smoothSolver:  Solving for omega, Initial residual = 0.818068, Final residual = 9.27076e-08, No Iterations 1
smoothSolver:  Solving for k, Initial residual = 0.00228393, Final residual = 8.36562e-05, No Iterations 2
ExecutionTime = 26.3018 s  ClockTime = 27 s

Time = 1999s

smoothSolver:  Solving for Ux, Initial residual = 0.000578846, Final residual = 5.12594e-05, No Iterations 4
smoothSolver:  Solving for Uy, Initial residual = 0.00638244, Final residual = 0.000421847, No Iterations 5
GAMG:  Solving for p, Initial residual = 0.0159375, Final residual = 0.00157295, No Iterations 2
time step continuity errors : sum local = 0.0628953, global = 0.00110006, cumulative = 0.874801
smoothSolver:  Solving for omega, Initial residual = 0.815065, Final residual = 4.65229e-06, No Iterations 1
smoothSolver:  Solving for k, Initial residual = 0.00222622, Final residual = 9.21392e-05, No Iterations 2
ExecutionTime = 26.3138 s  ClockTime = 27 s

Time = 2000s

smoothSolver:  Solving for Ux, Initial residual = 0.000563651, Final residual = 5.21661e-05, No Iterations 4
smoothSolver:  Solving for Uy, Initial residual = 0.00637085, Final residual = 0.000420567, No Iterations 5
GAMG:  Solving for p, Initial residual = 0.0151199, Final residual = 0.00100636, No Iterations 3
time step continuity errors : sum local = 0.0401613, global = -0.00237125, cumulative = 0.87243
smoothSolver:  Solving for omega, Initial residual = 0.756176, Final residual = 0.00282942, No Iterations 1
smoothSolver:  Solving for k, Initial residual = 0.0155343, Final residual = 0.000294084, No Iterations 1
ExecutionTime = 26.3442 s  ClockTime = 27 s

streamlines streamlines write:
    Seeded 10 particles
    Sampled 12035 locations

End

