/*---------------------------------------------------------------------------*\
  =========                 |
  \\      /  F ield         | OpenFOAM: The Open Source CFD Toolbox
   \\    /   O peration     | Website:  https://openfoam.org
    \\  /    A nd           | Version:  13
     \\/     M anipulation  |
\*---------------------------------------------------------------------------*/
Build  : 13-65eda17ad4ca
Exec   : foamRun
Date   : Oct 27 2025
Time   : 01:08:26
Host   : "LAPTOP-416UROR2"
PID    : 2532
I/O    : uncollated
Case   : /home/adisr/OpenFOAM-learning1/incompressibleFlow/02-backwardstep/original
nProcs : 1
sigFpe : Enabling floating point exception trapping (FOAM_SIGFPE).
fileModificationChecking : Monitoring run-time modified files using timeStampMaster (fileModificationSkew 10)
allowSystemOperations : Allowing user-supplied system call operations

// * * * * * * * * * * * * * * * * * * * * * * * * * * * * * * * * * * * * * //
Create time

Create mesh for time = 0

Selecting solver incompressibleFluid
Selecting viscosity model constant
Selecting turbulence model type RAS
    Selecting RAS turbulence model kEpsilon
        Selecting generalised Newtonian model Newtonian
No MRF models present


SIMPLE: Convergence criteria found
        p: tolerance 0.01
        U: tolerance 0.001
        "(k|epsilon|omega|f|v2)": tolerance 0.001


SIMPLE: Operating solver in steady-state mode with 1 outer corrector
SIMPLE: Operating solver in SIMPLE mode



Starting time loop

streamlines streamlines:
    automatic track length specified through number of sub cycles : 5

streamlines streamlines write:
    Seeded 10 particles
    Sampled 114 locations

Time = 1s

smoothSolver:  Solving for Ux, Initial residual = 1, Final residual = 0.0538101, No Iterations 1
smoothSolver:  Solving for Uy, Initial residual = 1, Final residual = 0.030925, No Iterations 2
GAMG:  Solving for p, Initial residual = 1, Final residual = 0.068427, No Iterations 17
time step continuity errors : sum local = 1.19733, global = 0.179883, cumulative = 0.179883
smoothSolver:  Solving for epsilon, Initial residual = 0.232889, Final residual = 0.0114607, No Iterations 3
smoothSolver:  Solving for k, Initial residual = 1, Final residual = 0.045463, No Iterations 3
ExecutionTime = 0.204775 s  ClockTime = 0 s

Time = 2s

smoothSolver:  Solving for Ux, Initial residual = 0.444948, Final residual = 0.0304733, No Iterations 5
smoothSolver:  Solving for Uy, Initial residual = 0.290044, Final residual = 0.0256266, No Iterations 4
GAMG:  Solving for p, Initial residual = 0.0523731, Final residual = 0.00435227, No Iterations 15
time step continuity errors : sum local = 3.97276, global = 0.123369, cumulative = 0.303252
smoothSolver:  Solving for epsilon, Initial residual = 0.176422, Final residual = 0.010293, No Iterations 3
smoothSolver:  Solving for k, Initial residual = 0.442533, Final residual = 0.0406087, No Iterations 3
ExecutionTime = 0.223454 s  ClockTime = 0 s

Time = 3s

smoothSolver:  Solving for Ux, Initial residual = 0.13533, Final residual = 0.00966241, No Iterations 4
smoothSolver:  Solving for Uy, Initial residual = 0.323337, Final residual = 0.0224466, No Iterations 3
GAMG:  Solving for p, Initial residual = 0.137022, Final residual = 0.0118966, No Iterations 6
time step continuity errors : sum local = 3.32459, global = 0.32285, cumulative = 0.626102
smoothSolver:  Solving for epsilon, Initial residual = 0.202525, Final residual = 0.0201902, No Iterations 1
smoothSolver:  Solving for k, Initial residual = 0.230242, Final residual = 0.0217093, No Iterations 3
ExecutionTime = 0.236783 s  ClockTime = 0 s

Time = 4s

smoothSolver:  Solving for Ux, Initial residual = 0.240372, Final residual = 0.0191387, No Iterations 2
smoothSolver:  Solving for Uy, Initial residual = 0.323121, Final residual = 0.0220551, No Iterations 2
GAMG:  Solving for p, Initial residual = 0.116279, Final residual = 0.0111244, No Iterations 5
time step continuity errors : sum local = 1.79795, global = -0.166167, cumulative = 0.459935
smoothSolver:  Solving for epsilon, Initial residual = 0.346928, Final residual = 0.0315827, No Iterations 2
smoothSolver:  Solving for k, Initial residual = 0.426401, Final residual = 0.0367795, No Iterations 2
ExecutionTime = 0.248624 s  ClockTime = 0 s

Time = 5s

smoothSolver:  Solving for Ux, Initial residual = 0.0611604, Final residual = 0.00410717, No Iterations 5
smoothSolver:  Solving for Uy, Initial residual = 0.0923784, Final residual = 0.00836878, No Iterations 4
GAMG:  Solving for p, Initial residual = 0.096084, Final residual = 0.007345, No Iterations 3
time step continuity errors : sum local = 1.32354, global = 0.0958177, cumulative = 0.555753
smoothSolver:  Solving for epsilon, Initial residual = 0.0844878, Final residual = 0.00636666, No Iterations 2
smoothSolver:  Solving for k, Initial residual = 0.0941772, Final residual = 0.0058707, No Iterations 4
ExecutionTime = 0.260789 s  ClockTime = 0 s

Time = 6s

smoothSolver:  Solving for Ux, Initial residual = 0.0541443, Final residual = 0.00355921, No Iterations 5
smoothSolver:  Solving for Uy, Initial residual = 0.120116, Final residual = 0.00757003, No Iterations 4
GAMG:  Solving for p, Initial residual = 0.0802353, Final residual = 0.006485, No Iterations 3
time step continuity errors : sum local = 1.2492, global = 0.0823223, cumulative = 0.638075
smoothSolver:  Solving for epsilon, Initial residual = 0.0561089, Final residual = 0.00334472, No Iterations 3
smoothSolver:  Solving for k, Initial residual = 0.0760415, Final residual = 0.00556347, No Iterations 4
ExecutionTime = 0.273085 s  ClockTime = 0 s

Time = 7s

smoothSolver:  Solving for Ux, Initial residual = 0.048505, Final residual = 0.00380998, No Iterations 5
smoothSolver:  Solving for Uy, Initial residual = 0.0714106, Final residual = 0.00469489, No Iterations 5
GAMG:  Solving for p, Initial residual = 0.0714785, Final residual = 0.0060678, No Iterations 3
time step continuity errors : sum local = 1.05174, global = 0.048899, cumulative = 0.686974
smoothSolver:  Solving for epsilon, Initial residual = 0.0436482, Final residual = 0.00295969, No Iterations 3
smoothSolver:  Solving for k, Initial residual = 0.0605834, Final residual = 0.00461502, No Iterations 4
ExecutionTime = 0.285668 s  ClockTime = 0 s

Time = 8s

smoothSolver:  Solving for Ux, Initial residual = 0.0448091, Final residual = 0.00377314, No Iterations 5
smoothSolver:  Solving for Uy, Initial residual = 0.0642009, Final residual = 0.00439584, No Iterations 5
GAMG:  Solving for p, Initial residual = 0.0651783, Final residual = 0.00465569, No Iterations 3
time step continuity errors : sum local = 0.762122, global = 0.047526, cumulative = 0.7345
smoothSolver:  Solving for epsilon, Initial residual = 0.0441288, Final residual = 0.00294137, No Iterations 3
smoothSolver:  Solving for k, Initial residual = 0.0542215, Final residual = 0.00429224, No Iterations 4
ExecutionTime = 0.298222 s  ClockTime = 0 s

Time = 9s

smoothSolver:  Solving for Ux, Initial residual = 0.0417253, Final residual = 0.00367984, No Iterations 5
smoothSolver:  Solving for Uy, Initial residual = 0.0597803, Final residual = 0.00426953, No Iterations 5
GAMG:  Solving for p, Initial residual = 0.0578779, Final residual = 0.0036431, No Iterations 3
time step continuity errors : sum local = 0.587173, global = 0.00966134, cumulative = 0.744161
smoothSolver:  Solving for epsilon, Initial residual = 0.0446394, Final residual = 0.00315451, No Iterations 3
smoothSolver:  Solving for k, Initial residual = 0.0498505, Final residual = 0.00406097, No Iterations 4
ExecutionTime = 0.310464 s  ClockTime = 0 s

Time = 10s

smoothSolver:  Solving for Ux, Initial residual = 0.0391498, Final residual = 0.00354984, No Iterations 5
smoothSolver:  Solving for Uy, Initial residual = 0.0551578, Final residual = 0.0041457, No Iterations 5
GAMG:  Solving for p, Initial residual = 0.0522903, Final residual = 0.00517807, No Iterations 2
time step continuity errors : sum local = 0.833277, global = -0.00352314, cumulative = 0.740638
smoothSolver:  Solving for epsilon, Initial residual = 0.0426158, Final residual = 0.00327095, No Iterations 3
smoothSolver:  Solving for k, Initial residual = 0.0465556, Final residual = 0.00380801, No Iterations 4
ExecutionTime = 0.322341 s  ClockTime = 0 s

Time = 11s

smoothSolver:  Solving for Ux, Initial residual = 0.0368626, Final residual = 0.0033901, No Iterations 5
smoothSolver:  Solving for Uy, Initial residual = 0.0518735, Final residual = 0.0040934, No Iterations 5
GAMG:  Solving for p, Initial residual = 0.051479, Final residual = 0.00354216, No Iterations 3
time step continuity errors : sum local = 0.57305, global = 0.0245683, cumulative = 0.765206
smoothSolver:  Solving for epsilon, Initial residual = 0.040273, Final residual = 0.00331342, No Iterations 3
smoothSolver:  Solving for k, Initial residual = 0.0439265, Final residual = 0.00359402, No Iterations 4
ExecutionTime = 0.334771 s  ClockTime = 0 s

Time = 12s

smoothSolver:  Solving for Ux, Initial residual = 0.0346418, Final residual = 0.00324407, No Iterations 5
smoothSolver:  Solving for Uy, Initial residual = 0.0490112, Final residual = 0.00382749, No Iterations 5
GAMG:  Solving for p, Initial residual = 0.048652, Final residual = 0.00418723, No Iterations 2
time step continuity errors : sum local = 0.671056, global = 0.0183902, cumulative = 0.783597
smoothSolver:  Solving for epsilon, Initial residual = 0.0390506, Final residual = 0.00331799, No Iterations 3
smoothSolver:  Solving for k, Initial residual = 0.0418446, Final residual = 0.00341714, No Iterations 4
ExecutionTime = 0.346408 s  ClockTime = 0 s

Time = 13s

smoothSolver:  Solving for Ux, Initial residual = 0.0326709, Final residual = 0.0030848, No Iterations 5
smoothSolver:  Solving for Uy, Initial residual = 0.0474817, Final residual = 0.00377654, No Iterations 5
GAMG:  Solving for p, Initial residual = 0.0495114, Final residual = 0.00369206, No Iterations 3
time step continuity errors : sum local = 0.554001, global = 0.00347001, cumulative = 0.787067
smoothSolver:  Solving for epsilon, Initial residual = 0.0384305, Final residual = 0.00330806, No Iterations 3
smoothSolver:  Solving for k, Initial residual = 0.0400756, Final residual = 0.00328378, No Iterations 4
ExecutionTime = 0.358609 s  ClockTime = 0 s

Time = 14s

smoothSolver:  Solving for Ux, Initial residual = 0.0309498, Final residual = 0.00289825, No Iterations 5
smoothSolver:  Solving for Uy, Initial residual = 0.0460614, Final residual = 0.00365921, No Iterations 5
GAMG:  Solving for p, Initial residual = 0.0500445, Final residual = 0.00426715, No Iterations 2
time step continuity errors : sum local = 0.626301, global = 0.00664848, cumulative = 0.793715
smoothSolver:  Solving for epsilon, Initial residual = 0.0358267, Final residual = 0.00319516, No Iterations 3
smoothSolver:  Solving for k, Initial residual = 0.0379492, Final residual = 0.0030821, No Iterations 4
ExecutionTime = 0.370206 s  ClockTime = 0 s

Time = 15s

smoothSolver:  Solving for Ux, Initial residual = 0.0293283, Final residual = 0.00276215, No Iterations 5
smoothSolver:  Solving for Uy, Initial residual = 0.0450039, Final residual = 0.00364512, No Iterations 5
GAMG:  Solving for p, Initial residual = 0.0499164, Final residual = 0.00494471, No Iterations 2
time step continuity errors : sum local = 0.6895, global = 0.0153723, cumulative = 0.809087
smoothSolver:  Solving for epsilon, Initial residual = 0.0335203, Final residual = 0.0030467, No Iterations 3
smoothSolver:  Solving for k, Initial residual = 0.0361026, Final residual = 0.00291295, No Iterations 4
ExecutionTime = 0.382384 s  ClockTime = 0 s

Time = 16s

smoothSolver:  Solving for Ux, Initial residual = 0.027552, Final residual = 0.00261793, No Iterations 5
smoothSolver:  Solving for Uy, Initial residual = 0.0438404, Final residual = 0.00360477, No Iterations 5
GAMG:  Solving for p, Initial residual = 0.0475715, Final residual = 0.0035571, No Iterations 3
time step continuity errors : sum local = 0.468896, global = -0.00729362, cumulative = 0.801794
smoothSolver:  Solving for epsilon, Initial residual = 0.0312911, Final residual = 0.00293377, No Iterations 3
smoothSolver:  Solving for k, Initial residual = 0.0341758, Final residual = 0.00274836, No Iterations 4
ExecutionTime = 0.394645 s  ClockTime = 0 s

Time = 17s

smoothSolver:  Solving for Ux, Initial residual = 0.025745, Final residual = 0.00245607, No Iterations 5
smoothSolver:  Solving for Uy, Initial residual = 0.0422323, Final residual = 0.00350512, No Iterations 5
GAMG:  Solving for p, Initial residual = 0.0439274, Final residual = 0.00425985, No Iterations 2
time step continuity errors : sum local = 0.536852, global = 0.00473996, cumulative = 0.806534
smoothSolver:  Solving for epsilon, Initial residual = 0.0286893, Final residual = 0.00275116, No Iterations 3
smoothSolver:  Solving for k, Initial residual = 0.0323606, Final residual = 0.00258804, No Iterations 4
ExecutionTime = 0.40634 s  ClockTime = 0 s

Time = 18s

smoothSolver:  Solving for Ux, Initial residual = 0.0242736, Final residual = 0.00234141, No Iterations 5
smoothSolver:  Solving for Uy, Initial residual = 0.0407062, Final residual = 0.00347954, No Iterations 5
GAMG:  Solving for p, Initial residual = 0.0433135, Final residual = 0.00328489, No Iterations 3
time step continuity errors : sum local = 0.399201, global = -0.0108545, cumulative = 0.795679
smoothSolver:  Solving for epsilon, Initial residual = 0.0269406, Final residual = 0.00260223, No Iterations 3
smoothSolver:  Solving for k, Initial residual = 0.0307405, Final residual = 0.00244987, No Iterations 4
ExecutionTime = 0.418568 s  ClockTime = 0 s

Time = 19s

smoothSolver:  Solving for Ux, Initial residual = 0.0229826, Final residual = 0.00221264, No Iterations 5
smoothSolver:  Solving for Uy, Initial residual = 0.0392012, Final residual = 0.00340334, No Iterations 5
GAMG:  Solving for p, Initial residual = 0.0401322, Final residual = 0.00290297, No Iterations 3
time step continuity errors : sum local = 0.343666, global = -0.00671507, cumulative = 0.788964
smoothSolver:  Solving for epsilon, Initial residual = 0.0250867, Final residual = 0.00243376, No Iterations 3
smoothSolver:  Solving for k, Initial residual = 0.0291804, Final residual = 0.00230862, No Iterations 4
ExecutionTime = 0.430814 s  ClockTime = 0 s

Time = 20s

smoothSolver:  Solving for Ux, Initial residual = 0.0217678, Final residual = 0.00209738, No Iterations 5
smoothSolver:  Solving for Uy, Initial residual = 0.037879, Final residual = 0.00333949, No Iterations 5
GAMG:  Solving for p, Initial residual = 0.0384474, Final residual = 0.00282346, No Iterations 3
time step continuity errors : sum local = 0.319285, global = -0.00652344, cumulative = 0.782441
smoothSolver:  Solving for epsilon, Initial residual = 0.0237312, Final residual = 0.00228333, No Iterations 3
smoothSolver:  Solving for k, Initial residual = 0.0278321, Final residual = 0.00218928, No Iterations 4
ExecutionTime = 0.443079 s  ClockTime = 0 s

Time = 21s

smoothSolver:  Solving for Ux, Initial residual = 0.0205906, Final residual = 0.00198539, No Iterations 5
smoothSolver:  Solving for Uy, Initial residual = 0.0366169, Final residual = 0.00327925, No Iterations 5
GAMG:  Solving for p, Initial residual = 0.0370497, Final residual = 0.00297545, No Iterations 3
time step continuity errors : sum local = 0.324891, global = -0.00962149, cumulative = 0.772819
smoothSolver:  Solving for epsilon, Initial residual = 0.0224562, Final residual = 0.00214068, No Iterations 3
smoothSolver:  Solving for k, Initial residual = 0.0267041, Final residual = 0.00208762, No Iterations 4
ExecutionTime = 0.45559 s  ClockTime = 0 s

Time = 22s

smoothSolver:  Solving for Ux, Initial residual = 0.0194229, Final residual = 0.00187534, No Iterations 5
smoothSolver:  Solving for Uy, Initial residual = 0.0354423, Final residual = 0.00321718, No Iterations 5
GAMG:  Solving for p, Initial residual = 0.0361841, Final residual = 0.00297844, No Iterations 3
time step continuity errors : sum local = 0.317101, global = -0.0106446, cumulative = 0.762175
smoothSolver:  Solving for epsilon, Initial residual = 0.0212009, Final residual = 0.00200053, No Iterations 3
smoothSolver:  Solving for k, Initial residual = 0.0253748, Final residual = 0.00197534, No Iterations 4
ExecutionTime = 0.467953 s  ClockTime = 0 s

Time = 23s

smoothSolver:  Solving for Ux, Initial residual = 0.0183003, Final residual = 0.00176953, No Iterations 5
smoothSolver:  Solving for Uy, Initial residual = 0.0342275, Final residual = 0.00315166, No Iterations 5
GAMG:  Solving for p, Initial residual = 0.0346299, Final residual = 0.0029722, No Iterations 3
time step continuity errors : sum local = 0.303825, global = -0.0124468, cumulative = 0.749728
smoothSolver:  Solving for epsilon, Initial residual = 0.0199372, Final residual = 0.00187644, No Iterations 3
smoothSolver:  Solving for k, Initial residual = 0.0244035, Final residual = 0.00189027, No Iterations 4
ExecutionTime = 0.480195 s  ClockTime = 0 s

Time = 24s

smoothSolver:  Solving for Ux, Initial residual = 0.017276, Final residual = 0.00166899, No Iterations 5
smoothSolver:  Solving for Uy, Initial residual = 0.0330908, Final residual = 0.00308147, No Iterations 5
GAMG:  Solving for p, Initial residual = 0.0331547, Final residual = 0.00292133, No Iterations 3
time step continuity errors : sum local = 0.286178, global = -0.0136932, cumulative = 0.736035
smoothSolver:  Solving for epsilon, Initial residual = 0.019026, Final residual = 0.00177042, No Iterations 3
smoothSolver:  Solving for k, Initial residual = 0.0233595, Final residual = 0.00179894, No Iterations 4
ExecutionTime = 0.492341 s  ClockTime = 0 s

Time = 25s

smoothSolver:  Solving for Ux, Initial residual = 0.016317, Final residual = 0.00157451, No Iterations 5
smoothSolver:  Solving for Uy, Initial residual = 0.03198, Final residual = 0.00300333, No Iterations 5
GAMG:  Solving for p, Initial residual = 0.0328886, Final residual = 0.00283318, No Iterations 3
time step continuity errors : sum local = 0.270339, global = -0.0121449, cumulative = 0.72389
smoothSolver:  Solving for epsilon, Initial residual = 0.0178942, Final residual = 0.00166481, No Iterations 3
smoothSolver:  Solving for k, Initial residual = 0.022497, Final residual = 0.00172232, No Iterations 4
ExecutionTime = 0.504671 s  ClockTime = 0 s

Time = 26s

smoothSolver:  Solving for Ux, Initial residual = 0.0153864, Final residual = 0.00148505, No Iterations 5
smoothSolver:  Solving for Uy, Initial residual = 0.0308511, Final residual = 0.00292281, No Iterations 5
GAMG:  Solving for p, Initial residual = 0.032375, Final residual = 0.00287148, No Iterations 3
time step continuity errors : sum local = 0.26618, global = -0.0127433, cumulative = 0.711146
smoothSolver:  Solving for epsilon, Initial residual = 0.0169381, Final residual = 0.00156784, No Iterations 3
smoothSolver:  Solving for k, Initial residual = 0.0217717, Final residual = 0.00166277, No Iterations 4
ExecutionTime = 0.516894 s  ClockTime = 0 s

Time = 27s

smoothSolver:  Solving for Ux, Initial residual = 0.0145037, Final residual = 0.00139936, No Iterations 5
smoothSolver:  Solving for Uy, Initial residual = 0.0296701, Final residual = 0.00283881, No Iterations 5
GAMG:  Solving for p, Initial residual = 0.0306521, Final residual = 0.00297449, No Iterations 3
time step continuity errors : sum local = 0.265708, global = -0.0143757, cumulative = 0.696771
smoothSolver:  Solving for epsilon, Initial residual = 0.0161993, Final residual = 0.0014816, No Iterations 3
smoothSolver:  Solving for k, Initial residual = 0.020956, Final residual = 0.00158542, No Iterations 4
ExecutionTime = 0.529071 s  ClockTime = 0 s

Time = 28s

smoothSolver:  Solving for Ux, Initial residual = 0.013661, Final residual = 0.00131769, No Iterations 5
smoothSolver:  Solving for Uy, Initial residual = 0.028689, Final residual = 0.00275286, No Iterations 5
GAMG:  Solving for p, Initial residual = 0.0307991, Final residual = 0.0029596, No Iterations 3
time step continuity errors : sum local = 0.257264, global = -0.0148972, cumulative = 0.681874
smoothSolver:  Solving for epsilon, Initial residual = 0.0153533, Final residual = 0.00140789, No Iterations 3
smoothSolver:  Solving for k, Initial residual = 0.0202511, Final residual = 0.001527, No Iterations 4
ExecutionTime = 0.541147 s  ClockTime = 0 s

Time = 29s

smoothSolver:  Solving for Ux, Initial residual = 0.0128315, Final residual = 0.0012397, No Iterations 5
smoothSolver:  Solving for Uy, Initial residual = 0.0276759, Final residual = 0.00266817, No Iterations 5
GAMG:  Solving for p, Initial residual = 0.0295356, Final residual = 0.00197971, No Iterations 4
time step continuity errors : sum local = 0.166415, global = 0.0247254, cumulative = 0.706599
smoothSolver:  Solving for epsilon, Initial residual = 0.0146703, Final residual = 0.0013356, No Iterations 3
smoothSolver:  Solving for k, Initial residual = 0.0196682, Final residual = 0.00147052, No Iterations 4
ExecutionTime = 0.554066 s  ClockTime = 0 s

Time = 30s

smoothSolver:  Solving for Ux, Initial residual = 0.0120269, Final residual = 0.0011623, No Iterations 5
smoothSolver:  Solving for Uy, Initial residual = 0.0267339, Final residual = 0.00258707, No Iterations 5
GAMG:  Solving for p, Initial residual = 0.0302226, Final residual = 0.00269514, No Iterations 3
time step continuity errors : sum local = 0.218804, global = -0.0245485, cumulative = 0.68205
smoothSolver:  Solving for epsilon, Initial residual = 0.0140859, Final residual = 0.0012804, No Iterations 3
smoothSolver:  Solving for k, Initial residual = 0.0189568, Final residual = 0.00141197, No Iterations 4
ExecutionTime = 0.566234 s  ClockTime = 0 s

Time = 31s

smoothSolver:  Solving for Ux, Initial residual = 0.0113385, Final residual = 0.00109915, No Iterations 5
smoothSolver:  Solving for Uy, Initial residual = 0.0258153, Final residual = 0.00250538, No Iterations 5
GAMG:  Solving for p, Initial residual = 0.0302929, Final residual = 0.00273671, No Iterations 3
time step continuity errors : sum local = 0.216907, global = 4.12253e-05, cumulative = 0.682092
smoothSolver:  Solving for epsilon, Initial residual = 0.0133952, Final residual = 0.00122586, No Iterations 3
smoothSolver:  Solving for k, Initial residual = 0.0182911, Final residual = 0.00135874, No Iterations 4
ExecutionTime = 0.578591 s  ClockTime = 0 s

Time = 32s

smoothSolver:  Solving for Ux, Initial residual = 0.0106281, Final residual = 0.00102996, No Iterations 5
smoothSolver:  Solving for Uy, Initial residual = 0.0249463, Final residual = 0.00241755, No Iterations 5
GAMG:  Solving for p, Initial residual = 0.0307495, Final residual = 0.00290426, No Iterations 3
time step continuity errors : sum local = 0.222815, global = -0.0225349, cumulative = 0.659557
smoothSolver:  Solving for epsilon, Initial residual = 0.0127784, Final residual = 0.00116996, No Iterations 3
smoothSolver:  Solving for k, Initial residual = 0.0176721, Final residual = 0.00130467, No Iterations 4
ExecutionTime = 0.590608 s  ClockTime = 0 s

Time = 33s

smoothSolver:  Solving for Ux, Initial residual = 0.00997188, Final residual = 0.000970342, No Iterations 5
smoothSolver:  Solving for Uy, Initial residual = 0.0241733, Final residual = 0.00235799, No Iterations 5
GAMG:  Solving for p, Initial residual = 0.0306443, Final residual = 0.00252149, No Iterations 3
time step continuity errors : sum local = 0.188126, global = 0.00084459, cumulative = 0.660401
smoothSolver:  Solving for epsilon, Initial residual = 0.0122474, Final residual = 0.00112129, No Iterations 3
smoothSolver:  Solving for k, Initial residual = 0.0171322, Final residual = 0.00126075, No Iterations 4
ExecutionTime = 0.603209 s  ClockTime = 0 s

Time = 34s

smoothSolver:  Solving for Ux, Initial residual = 0.00936655, Final residual = 0.000911487, No Iterations 5
smoothSolver:  Solving for Uy, Initial residual = 0.0234493, Final residual = 0.00229203, No Iterations 5
GAMG:  Solving for p, Initial residual = 0.0296785, Final residual = 0.00248048, No Iterations 3
time step continuity errors : sum local = 0.180532, global = -0.0154508, cumulative = 0.644951
smoothSolver:  Solving for epsilon, Initial residual = 0.0117374, Final residual = 0.00108818, No Iterations 3
smoothSolver:  Solving for k, Initial residual = 0.0165393, Final residual = 0.00121808, No Iterations 4
ExecutionTime = 0.615574 s  ClockTime = 0 s

Time = 35s

smoothSolver:  Solving for Ux, Initial residual = 0.00878658, Final residual = 0.00085984, No Iterations 5
smoothSolver:  Solving for Uy, Initial residual = 0.0226218, Final residual = 0.00223676, No Iterations 5
GAMG:  Solving for p, Initial residual = 0.0285443, Final residual = 0.00237692, No Iterations 3
time step continuity errors : sum local = 0.168157, global = 0.00966604, cumulative = 0.654617
smoothSolver:  Solving for epsilon, Initial residual = 0.0112755, Final residual = 0.00104462, No Iterations 3
smoothSolver:  Solving for k, Initial residual = 0.0160656, Final residual = 0.00117681, No Iterations 4
ExecutionTime = 0.628026 s  ClockTime = 0 s

Time = 36s

smoothSolver:  Solving for Ux, Initial residual = 0.00826597, Final residual = 0.00081116, No Iterations 5
smoothSolver:  Solving for Uy, Initial residual = 0.022027, Final residual = 0.00218475, No Iterations 5
GAMG:  Solving for p, Initial residual = 0.0271701, Final residual = 0.0025147, No Iterations 3
time step continuity errors : sum local = 0.17393, global = -0.0157606, cumulative = 0.638856
smoothSolver:  Solving for epsilon, Initial residual = 0.0108646, Final residual = 0.00101203, No Iterations 3
smoothSolver:  Solving for k, Initial residual = 0.0156308, Final residual = 0.00113977, No Iterations 4
ExecutionTime = 0.640353 s  ClockTime = 0 s

Time = 37s

smoothSolver:  Solving for Ux, Initial residual = 0.00777205, Final residual = 0.000766462, No Iterations 5
smoothSolver:  Solving for Uy, Initial residual = 0.0214005, Final residual = 0.0013833, No Iterations 6
GAMG:  Solving for p, Initial residual = 0.026748, Final residual = 0.0023191, No Iterations 3
time step continuity errors : sum local = 0.156668, global = 0.0164273, cumulative = 0.655283
smoothSolver:  Solving for epsilon, Initial residual = 0.0104428, Final residual = 0.000977374, No Iterations 3
smoothSolver:  Solving for k, Initial residual = 0.0151006, Final residual = 0.00110475, No Iterations 4
ExecutionTime = 0.65282 s  ClockTime = 0 s

Time = 38s

smoothSolver:  Solving for Ux, Initial residual = 0.00737229, Final residual = 0.000728071, No Iterations 5
smoothSolver:  Solving for Uy, Initial residual = 0.0207454, Final residual = 0.00134215, No Iterations 6
GAMG:  Solving for p, Initial residual = 0.0283136, Final residual = 0.00252779, No Iterations 3
time step continuity errors : sum local = 0.167245, global = -0.0146866, cumulative = 0.640597
smoothSolver:  Solving for epsilon, Initial residual = 0.0100866, Final residual = 0.000942632, No Iterations 3
smoothSolver:  Solving for k, Initial residual = 0.0146641, Final residual = 0.00106997, No Iterations 4
ExecutionTime = 0.665365 s  ClockTime = 0 s

Time = 39s

smoothSolver:  Solving for Ux, Initial residual = 0.00696862, Final residual = 0.00069172, No Iterations 5
smoothSolver:  Solving for Uy, Initial residual = 0.0201425, Final residual = 0.00131465, No Iterations 6
GAMG:  Solving for p, Initial residual = 0.0272179, Final residual = 0.0022849, No Iterations 3
time step continuity errors : sum local = 0.146428, global = 0.0181495, cumulative = 0.658746
smoothSolver:  Solving for epsilon, Initial residual = 0.00971278, Final residual = 0.000908987, No Iterations 3
smoothSolver:  Solving for k, Initial residual = 0.0141599, Final residual = 0.00102811, No Iterations 4
ExecutionTime = 0.677978 s  ClockTime = 0 s

Time = 40s

smoothSolver:  Solving for Ux, Initial residual = 0.00659713, Final residual = 0.000656925, No Iterations 5
smoothSolver:  Solving for Uy, Initial residual = 0.0197953, Final residual = 0.00129806, No Iterations 6
GAMG:  Solving for p, Initial residual = 0.026532, Final residual = 0.00248137, No Iterations 3
time step continuity errors : sum local = 0.156331, global = -0.011425, cumulative = 0.647321
smoothSolver:  Solving for epsilon, Initial residual = 0.00938064, Final residual = 0.000870512, No Iterations 3
smoothSolver:  Solving for k, Initial residual = 0.0137346, Final residual = 0.000990535, No Iterations 4
ExecutionTime = 0.690301 s  ClockTime = 0 s

Time = 41s

smoothSolver:  Solving for Ux, Initial residual = 0.00625377, Final residual = 0.000624678, No Iterations 5
smoothSolver:  Solving for Uy, Initial residual = 0.0193561, Final residual = 0.00128571, No Iterations 6
GAMG:  Solving for p, Initial residual = 0.0266008, Final residual = 0.00207922, No Iterations 3
time step continuity errors : sum local = 0.128529, global = 0.0145988, cumulative = 0.66192
smoothSolver:  Solving for epsilon, Initial residual = 0.00904246, Final residual = 0.000832573, No Iterations 3
smoothSolver:  Solving for k, Initial residual = 0.0133153, Final residual = 0.000969561, No Iterations 4
ExecutionTime = 0.703047 s  ClockTime = 0 s

Time = 42s

smoothSolver:  Solving for Ux, Initial residual = 0.00596483, Final residual = 0.000382507, No Iterations 6
smoothSolver:  Solving for Uy, Initial residual = 0.0191573, Final residual = 0.00127568, No Iterations 6
GAMG:  Solving for p, Initial residual = 0.0264289, Final residual = 0.0022642, No Iterations 3
time step continuity errors : sum local = 0.136226, global = -0.00292701, cumulative = 0.658993
smoothSolver:  Solving for epsilon, Initial residual = 0.00871191, Final residual = 0.000811877, No Iterations 3
smoothSolver:  Solving for k, Initial residual = 0.0128635, Final residual = 0.000931069, No Iterations 4
ExecutionTime = 0.715771 s  ClockTime = 1 s

Time = 43s

smoothSolver:  Solving for Ux, Initial residual = 0.00564275, Final residual = 0.000363831, No Iterations 6
smoothSolver:  Solving for Uy, Initial residual = 0.0189403, Final residual = 0.0012782, No Iterations 6
GAMG:  Solving for p, Initial residual = 0.0255909, Final residual = 0.00219996, No Iterations 3
time step continuity errors : sum local = 0.130106, global = 0.00884735, cumulative = 0.66784
smoothSolver:  Solving for epsilon, Initial residual = 0.0084362, Final residual = 0.00077485, No Iterations 3
smoothSolver:  Solving for k, Initial residual = 0.0124692, Final residual = 0.000901829, No Iterations 4
ExecutionTime = 0.728467 s  ClockTime = 1 s

Time = 44s

smoothSolver:  Solving for Ux, Initial residual = 0.00539296, Final residual = 0.000348378, No Iterations 6
smoothSolver:  Solving for Uy, Initial residual = 0.0188548, Final residual = 0.00127782, No Iterations 6
GAMG:  Solving for p, Initial residual = 0.026778, Final residual = 0.00200073, No Iterations 3
time step continuity errors : sum local = 0.117823, global = 0.00375046, cumulative = 0.671591
smoothSolver:  Solving for epsilon, Initial residual = 0.00819486, Final residual = 0.000739296, No Iterations 3
smoothSolver:  Solving for k, Initial residual = 0.0120311, Final residual = 0.000862074, No Iterations 4
ExecutionTime = 0.741161 s  ClockTime = 1 s

Time = 45s

smoothSolver:  Solving for Ux, Initial residual = 0.00517771, Final residual = 0.000335749, No Iterations 6
smoothSolver:  Solving for Uy, Initial residual = 0.0187273, Final residual = 0.00127583, No Iterations 6
GAMG:  Solving for p, Initial residual = 0.0249318, Final residual = 0.00197204, No Iterations 3
time step continuity errors : sum local = 0.111811, global = 0.0107426, cumulative = 0.682333
smoothSolver:  Solving for epsilon, Initial residual = 0.0078539, Final residual = 0.0007162, No Iterations 3
smoothSolver:  Solving for k, Initial residual = 0.0116444, Final residual = 0.000831849, No Iterations 4
ExecutionTime = 0.754015 s  ClockTime = 1 s

Time = 46s

smoothSolver:  Solving for Ux, Initial residual = 0.00497103, Final residual = 0.000323988, No Iterations 6
smoothSolver:  Solving for Uy, Initial residual = 0.0186479, Final residual = 0.00127688, No Iterations 6
GAMG:  Solving for p, Initial residual = 0.0249239, Final residual = 0.00196104, No Iterations 3
time step continuity errors : sum local = 0.110096, global = 0.0109536, cumulative = 0.693287
smoothSolver:  Solving for epsilon, Initial residual = 0.00764076, Final residual = 0.00068287, No Iterations 3
smoothSolver:  Solving for k, Initial residual = 0.0112903, Final residual = 0.000813302, No Iterations 4
ExecutionTime = 0.766748 s  ClockTime = 1 s

Time = 47s

smoothSolver:  Solving for Ux, Initial residual = 0.00480457, Final residual = 0.000313561, No Iterations 6
smoothSolver:  Solving for Uy, Initial residual = 0.0184937, Final residual = 0.00127759, No Iterations 6
GAMG:  Solving for p, Initial residual = 0.025059, Final residual = 0.0018161, No Iterations 3
time step continuity errors : sum local = 0.101099, global = 0.0148097, cumulative = 0.708096
smoothSolver:  Solving for epsilon, Initial residual = 0.00738382, Final residual = 0.00065396, No Iterations 3
smoothSolver:  Solving for k, Initial residual = 0.0108669, Final residual = 0.000776112, No Iterations 4
ExecutionTime = 0.779394 s  ClockTime = 1 s

Time = 48s

smoothSolver:  Solving for Ux, Initial residual = 0.00467038, Final residual = 0.000305872, No Iterations 6
smoothSolver:  Solving for Uy, Initial residual = 0.0184483, Final residual = 0.00127918, No Iterations 6
GAMG:  Solving for p, Initial residual = 0.0233524, Final residual = 0.0019278, No Iterations 3
time step continuity errors : sum local = 0.104704, global = 0.0173656, cumulative = 0.725462
smoothSolver:  Solving for epsilon, Initial residual = 0.0071054, Final residual = 0.000624673, No Iterations 3
smoothSolver:  Solving for k, Initial residual = 0.0104832, Final residual = 0.000744489, No Iterations 4
ExecutionTime = 0.792391 s  ClockTime = 1 s

Time = 49s

smoothSolver:  Solving for Ux, Initial residual = 0.00454318, Final residual = 0.000298434, No Iterations 6
smoothSolver:  Solving for Uy, Initial residual = 0.0184616, Final residual = 0.00128359, No Iterations 6
GAMG:  Solving for p, Initial residual = 0.02308, Final residual = 0.00187251, No Iterations 3
time step continuity errors : sum local = 0.100929, global = 0.0168094, cumulative = 0.742272
smoothSolver:  Solving for epsilon, Initial residual = 0.00696932, Final residual = 0.000600366, No Iterations 3
smoothSolver:  Solving for k, Initial residual = 0.0101503, Final residual = 0.000721961, No Iterations 4
ExecutionTime = 0.805433 s  ClockTime = 1 s

Time = 50s

smoothSolver:  Solving for Ux, Initial residual = 0.00443937, Final residual = 0.000292105, No Iterations 6
smoothSolver:  Solving for Uy, Initial residual = 0.0184238, Final residual = 0.00128889, No Iterations 6
GAMG:  Solving for p, Initial residual = 0.0248187, Final residual = 0.00176509, No Iterations 3
time step continuity errors : sum local = 0.0950153, global = 0.0157601, cumulative = 0.758032
smoothSolver:  Solving for epsilon, Initial residual = 0.00671495, Final residual = 0.000573812, No Iterations 3
smoothSolver:  Solving for k, Initial residual = 0.00980992, Final residual = 0.000700491, No Iterations 4
ExecutionTime = 0.818263 s  ClockTime = 1 s

Time = 51s

smoothSolver:  Solving for Ux, Initial residual = 0.00436334, Final residual = 0.000287986, No Iterations 6
smoothSolver:  Solving for Uy, Initial residual = 0.0184325, Final residual = 0.00129277, No Iterations 6
GAMG:  Solving for p, Initial residual = 0.0224518, Final residual = 0.00177362, No Iterations 3
time step continuity errors : sum local = 0.0930758, global = 0.0157886, cumulative = 0.77382
smoothSolver:  Solving for epsilon, Initial residual = 0.00649817, Final residual = 0.000546912, No Iterations 3
smoothSolver:  Solving for k, Initial residual = 0.00949649, Final residual = 0.000674184, No Iterations 4
ExecutionTime = 0.831008 s  ClockTime = 1 s

Time = 52s

smoothSolver:  Solving for Ux, Initial residual = 0.00428743, Final residual = 0.000283509, No Iterations 6
smoothSolver:  Solving for Uy, Initial residual = 0.01852, Final residual = 0.00129961, No Iterations 6
GAMG:  Solving for p, Initial residual = 0.0226772, Final residual = 0.00168225, No Iterations 3
time step continuity errors : sum local = 0.0876422, global = 0.0144965, cumulative = 0.788317
smoothSolver:  Solving for epsilon, Initial residual = 0.006343, Final residual = 0.000529227, No Iterations 3
smoothSolver:  Solving for k, Initial residual = 0.00912851, Final residual = 0.000644901, No Iterations 4
ExecutionTime = 0.843393 s  ClockTime = 1 s

Time = 53s

smoothSolver:  Solving for Ux, Initial residual = 0.00422147, Final residual = 0.000279634, No Iterations 6
smoothSolver:  Solving for Uy, Initial residual = 0.0185004, Final residual = 0.00130641, No Iterations 6
GAMG:  Solving for p, Initial residual = 0.0219407, Final residual = 0.00164033, No Iterations 3
time step continuity errors : sum local = 0.0848849, global = 0.0149221, cumulative = 0.803239
smoothSolver:  Solving for epsilon, Initial residual = 0.00620191, Final residual = 0.000506187, No Iterations 3
smoothSolver:  Solving for k, Initial residual = 0.00885666, Final residual = 0.000623893, No Iterations 4
ExecutionTime = 0.856063 s  ClockTime = 1 s

Time = 54s

smoothSolver:  Solving for Ux, Initial residual = 0.00417891, Final residual = 0.000276297, No Iterations 6
smoothSolver:  Solving for Uy, Initial residual = 0.0185077, Final residual = 0.00131223, No Iterations 6
GAMG:  Solving for p, Initial residual = 0.0246234, Final residual = 0.00149762, No Iterations 3
time step continuity errors : sum local = 0.077988, global = 0.0132724, cumulative = 0.816511
smoothSolver:  Solving for epsilon, Initial residual = 0.00612265, Final residual = 0.00049228, No Iterations 3
smoothSolver:  Solving for k, Initial residual = 0.00857211, Final residual = 0.000603413, No Iterations 4
ExecutionTime = 0.868665 s  ClockTime = 1 s

Time = 55s

smoothSolver:  Solving for Ux, Initial residual = 0.00414287, Final residual = 0.000273994, No Iterations 6
smoothSolver:  Solving for Uy, Initial residual = 0.0186219, Final residual = 0.00131552, No Iterations 6
GAMG:  Solving for p, Initial residual = 0.021678, Final residual = 0.00166098, No Iterations 3
time step continuity errors : sum local = 0.0846882, global = 0.0160051, cumulative = 0.832516
smoothSolver:  Solving for epsilon, Initial residual = 0.00587428, Final residual = 0.000469909, No Iterations 3
smoothSolver:  Solving for k, Initial residual = 0.00832645, Final residual = 0.000582817, No Iterations 4
ExecutionTime = 0.881135 s  ClockTime = 1 s

Time = 56s

smoothSolver:  Solving for Ux, Initial residual = 0.00408982, Final residual = 0.000271053, No Iterations 6
smoothSolver:  Solving for Uy, Initial residual = 0.0186092, Final residual = 0.00132381, No Iterations 6
GAMG:  Solving for p, Initial residual = 0.0223689, Final residual = 0.00164634, No Iterations 3
time step continuity errors : sum local = 0.0830318, global = 0.00714511, cumulative = 0.839661
smoothSolver:  Solving for epsilon, Initial residual = 0.00575433, Final residual = 0.000454298, No Iterations 3
smoothSolver:  Solving for k, Initial residual = 0.00806428, Final residual = 0.000563344, No Iterations 4
ExecutionTime = 0.893555 s  ClockTime = 1 s

Time = 57s

smoothSolver:  Solving for Ux, Initial residual = 0.00404635, Final residual = 0.000268216, No Iterations 6
smoothSolver:  Solving for Uy, Initial residual = 0.018622, Final residual = 0.0013324, No Iterations 6
GAMG:  Solving for p, Initial residual = 0.0210689, Final residual = 0.00145443, No Iterations 3
time step continuity errors : sum local = 0.0731377, global = 0.0179412, cumulative = 0.857603
smoothSolver:  Solving for epsilon, Initial residual = 0.00567241, Final residual = 0.000441369, No Iterations 3
smoothSolver:  Solving for k, Initial residual = 0.00786902, Final residual = 0.000553129, No Iterations 4
ExecutionTime = 0.906113 s  ClockTime = 1 s

Time = 58s

smoothSolver:  Solving for Ux, Initial residual = 0.00402248, Final residual = 0.000266332, No Iterations 6
smoothSolver:  Solving for Uy, Initial residual = 0.0186979, Final residual = 0.00133636, No Iterations 6
GAMG:  Solving for p, Initial residual = 0.0238603, Final residual = 0.0017455, No Iterations 3
time step continuity errors : sum local = 0.0880482, global = -0.0109115, cumulative = 0.846691
smoothSolver:  Solving for epsilon, Initial residual = 0.00556729, Final residual = 0.000426619, No Iterations 3
smoothSolver:  Solving for k, Initial residual = 0.00761287, Final residual = 0.000531295, No Iterations 4
ExecutionTime = 0.918948 s  ClockTime = 1 s

Time = 59s

smoothSolver:  Solving for Ux, Initial residual = 0.0039994, Final residual = 0.000264343, No Iterations 6
smoothSolver:  Solving for Uy, Initial residual = 0.0187541, Final residual = 0.0013402, No Iterations 6
GAMG:  Solving for p, Initial residual = 0.0218749, Final residual = 0.00176915, No Iterations 3
time step continuity errors : sum local = 0.0872269, global = 0.0148661, cumulative = 0.861557
smoothSolver:  Solving for epsilon, Initial residual = 0.00542673, Final residual = 0.000418681, No Iterations 3
smoothSolver:  Solving for k, Initial residual = 0.00743663, Final residual = 0.000519601, No Iterations 4
ExecutionTime = 0.931901 s  ClockTime = 1 s

Time = 60s

smoothSolver:  Solving for Ux, Initial residual = 0.00395709, Final residual = 0.00026248, No Iterations 6
smoothSolver:  Solving for Uy, Initial residual = 0.0188163, Final residual = 0.0013448, No Iterations 6
GAMG:  Solving for p, Initial residual = 0.0221655, Final residual = 0.0018695, No Iterations 3
time step continuity errors : sum local = 0.0918371, global = -0.00376129, cumulative = 0.857796
smoothSolver:  Solving for epsilon, Initial residual = 0.00533639, Final residual = 0.000404359, No Iterations 3
smoothSolver:  Solving for k, Initial residual = 0.00718862, Final residual = 0.000501539, No Iterations 4
ExecutionTime = 0.944744 s  ClockTime = 1 s

Time = 61s

smoothSolver:  Solving for Ux, Initial residual = 0.00391317, Final residual = 0.000259043, No Iterations 6
smoothSolver:  Solving for Uy, Initial residual = 0.0189479, Final residual = 0.00136156, No Iterations 6
GAMG:  Solving for p, Initial residual = 0.0204164, Final residual = 0.00151026, No Iterations 3
time step continuity errors : sum local = 0.0738551, global = 0.0147236, cumulative = 0.87252
smoothSolver:  Solving for epsilon, Initial residual = 0.00522208, Final residual = 0.000397245, No Iterations 3
smoothSolver:  Solving for k, Initial residual = 0.00701157, Final residual = 0.000490243, No Iterations 4
ExecutionTime = 0.957832 s  ClockTime = 1 s

Time = 62s

smoothSolver:  Solving for Ux, Initial residual = 0.00388975, Final residual = 0.000258235, No Iterations 6
smoothSolver:  Solving for Uy, Initial residual = 0.0189309, Final residual = 0.00136782, No Iterations 6
GAMG:  Solving for p, Initial residual = 0.0205224, Final residual = 0.00193487, No Iterations 3
time step continuity errors : sum local = 0.0946086, global = -0.00526295, cumulative = 0.867257
smoothSolver:  Solving for epsilon, Initial residual = 0.00513997, Final residual = 0.000388737, No Iterations 3
smoothSolver:  Solving for k, Initial residual = 0.00684049, Final residual = 0.000480407, No Iterations 4
ExecutionTime = 0.970656 s  ClockTime = 1 s

Time = 63s

smoothSolver:  Solving for Ux, Initial residual = 0.00386103, Final residual = 0.000255763, No Iterations 6
smoothSolver:  Solving for Uy, Initial residual = 0.0189797, Final residual = 0.00137692, No Iterations 6
GAMG:  Solving for p, Initial residual = 0.0198826, Final residual = 0.00147362, No Iterations 3
time step continuity errors : sum local = 0.0713368, global = 0.014788, cumulative = 0.882045
smoothSolver:  Solving for epsilon, Initial residual = 0.00504561, Final residual = 0.000381947, No Iterations 3
smoothSolver:  Solving for k, Initial residual = 0.00667673, Final residual = 0.000470814, No Iterations 4
ExecutionTime = 0.983983 s  ClockTime = 1 s

Time = 64s

smoothSolver:  Solving for Ux, Initial residual = 0.0038369, Final residual = 0.000254834, No Iterations 6
smoothSolver:  Solving for Uy, Initial residual = 0.0190267, Final residual = 0.00138474, No Iterations 6
GAMG:  Solving for p, Initial residual = 0.0197604, Final residual = 0.0017957, No Iterations 3
time step continuity errors : sum local = 0.0867056, global = -0.0118804, cumulative = 0.870164
smoothSolver:  Solving for epsilon, Initial residual = 0.00496527, Final residual = 0.000374936, No Iterations 3
smoothSolver:  Solving for k, Initial residual = 0.00655182, Final residual = 0.000461213, No Iterations 4
ExecutionTime = 0.996685 s  ClockTime = 1 s

Time = 65s

smoothSolver:  Solving for Ux, Initial residual = 0.00382043, Final residual = 0.000252618, No Iterations 6
smoothSolver:  Solving for Uy, Initial residual = 0.0191349, Final residual = 0.0013955, No Iterations 6
GAMG:  Solving for p, Initial residual = 0.0195622, Final residual = 0.0016094, No Iterations 3
time step continuity errors : sum local = 0.0766826, global = 0.0140681, cumulative = 0.884232
smoothSolver:  Solving for epsilon, Initial residual = 0.00490407, Final residual = 0.000369451, No Iterations 3
smoothSolver:  Solving for k, Initial residual = 0.00641515, Final residual = 0.000454681, No Iterations 4
ExecutionTime = 1.00927 s  ClockTime = 1 s

Time = 66s

smoothSolver:  Solving for Ux, Initial residual = 0.00379774, Final residual = 0.00025183, No Iterations 6
smoothSolver:  Solving for Uy, Initial residual = 0.019218, Final residual = 0.00140489, No Iterations 6
GAMG:  Solving for p, Initial residual = 0.019718, Final residual = 0.00192164, No Iterations 3
time step continuity errors : sum local = 0.0918362, global = -0.0129515, cumulative = 0.871281
smoothSolver:  Solving for epsilon, Initial residual = 0.00484332, Final residual = 0.000367232, No Iterations 3
smoothSolver:  Solving for k, Initial residual = 0.00626308, Final residual = 0.000446922, No Iterations 4
ExecutionTime = 1.02185 s  ClockTime = 1 s

Time = 67s

smoothSolver:  Solving for Ux, Initial residual = 0.00377492, Final residual = 0.000249578, No Iterations 6
smoothSolver:  Solving for Uy, Initial residual = 0.0193294, Final residual = 0.00141581, No Iterations 6
GAMG:  Solving for p, Initial residual = 0.0193, Final residual = 0.00160902, No Iterations 3
time step continuity errors : sum local = 0.076329, global = 0.0135497, cumulative = 0.88483
smoothSolver:  Solving for epsilon, Initial residual = 0.00481943, Final residual = 0.000367631, No Iterations 3
smoothSolver:  Solving for k, Initial residual = 0.00617992, Final residual = 0.000439248, No Iterations 4
ExecutionTime = 1.03473 s  ClockTime = 1 s

Time = 68s

smoothSolver:  Solving for Ux, Initial residual = 0.00376085, Final residual = 0.000249051, No Iterations 6
smoothSolver:  Solving for Uy, Initial residual = 0.0194665, Final residual = 0.00142827, No Iterations 6
GAMG:  Solving for p, Initial residual = 0.0197576, Final residual = 0.00181183, No Iterations 3
time step continuity errors : sum local = 0.0855005, global = -0.0141313, cumulative = 0.870699
smoothSolver:  Solving for epsilon, Initial residual = 0.00473792, Final residual = 0.000363915, No Iterations 3
smoothSolver:  Solving for k, Initial residual = 0.00606744, Final residual = 0.000435281, No Iterations 4
ExecutionTime = 1.04733 s  ClockTime = 1 s

Time = 69s

smoothSolver:  Solving for Ux, Initial residual = 0.00374092, Final residual = 0.000247292, No Iterations 6
smoothSolver:  Solving for Uy, Initial residual = 0.0195447, Final residual = 0.00143763, No Iterations 6
GAMG:  Solving for p, Initial residual = 0.0186364, Final residual = 0.00171046, No Iterations 3
time step continuity errors : sum local = 0.080329, global = 0.012868, cumulative = 0.883567
smoothSolver:  Solving for epsilon, Initial residual = 0.00470118, Final residual = 0.000363157, No Iterations 3
smoothSolver:  Solving for k, Initial residual = 0.00599433, Final residual = 0.000431903, No Iterations 4
ExecutionTime = 1.05986 s  ClockTime = 1 s

Time = 70s

smoothSolver:  Solving for Ux, Initial residual = 0.00372868, Final residual = 0.000246953, No Iterations 6
smoothSolver:  Solving for Uy, Initial residual = 0.0196907, Final residual = 0.00144904, No Iterations 6
GAMG:  Solving for p, Initial residual = 0.0191745, Final residual = 0.00173023, No Iterations 3
time step continuity errors : sum local = 0.0811394, global = -0.0128242, cumulative = 0.870743
smoothSolver:  Solving for epsilon, Initial residual = 0.00467222, Final residual = 0.000362509, No Iterations 3
smoothSolver:  Solving for k, Initial residual = 0.00589687, Final residual = 0.000427266, No Iterations 4
ExecutionTime = 1.07222 s  ClockTime = 1 s

Time = 71s

smoothSolver:  Solving for Ux, Initial residual = 0.0037124, Final residual = 0.000245344, No Iterations 6
smoothSolver:  Solving for Uy, Initial residual = 0.0198036, Final residual = 0.0014598, No Iterations 6
GAMG:  Solving for p, Initial residual = 0.0181937, Final residual = 0.00169778, No Iterations 3
time step continuity errors : sum local = 0.0790375, global = 0.012262, cumulative = 0.883005
smoothSolver:  Solving for epsilon, Initial residual = 0.00461687, Final residual = 0.000360269, No Iterations 3
smoothSolver:  Solving for k, Initial residual = 0.00583083, Final residual = 0.000426928, No Iterations 4
ExecutionTime = 1.08483 s  ClockTime = 1 s

Time = 72s

smoothSolver:  Solving for Ux, Initial residual = 0.0037066, Final residual = 0.000245287, No Iterations 6
smoothSolver:  Solving for Uy, Initial residual = 0.0199461, Final residual = 0.0014714, No Iterations 6
GAMG:  Solving for p, Initial residual = 0.0187829, Final residual = 0.00167362, No Iterations 3
time step continuity errors : sum local = 0.0781129, global = -0.0122383, cumulative = 0.870767
smoothSolver:  Solving for epsilon, Initial residual = 0.00460642, Final residual = 0.000364613, No Iterations 3
smoothSolver:  Solving for k, Initial residual = 0.00575182, Final residual = 0.000422615, No Iterations 4
ExecutionTime = 1.09721 s  ClockTime = 1 s

Time = 73s

smoothSolver:  Solving for Ux, Initial residual = 0.00368914, Final residual = 0.000243938, No Iterations 6
smoothSolver:  Solving for Uy, Initial residual = 0.0200414, Final residual = 0.00148133, No Iterations 6
GAMG:  Solving for p, Initial residual = 0.0176715, Final residual = 0.0016523, No Iterations 3
time step continuity errors : sum local = 0.077035, global = 0.0118761, cumulative = 0.882643
smoothSolver:  Solving for epsilon, Initial residual = 0.00456285, Final residual = 0.000364619, No Iterations 3
smoothSolver:  Solving for k, Initial residual = 0.00568553, Final residual = 0.000422199, No Iterations 4
ExecutionTime = 1.10962 s  ClockTime = 1 s

Time = 74s

smoothSolver:  Solving for Ux, Initial residual = 0.00368866, Final residual = 0.000244074, No Iterations 6
smoothSolver:  Solving for Uy, Initial residual = 0.0202015, Final residual = 0.00149353, No Iterations 6
GAMG:  Solving for p, Initial residual = 0.0185252, Final residual = 0.00160913, No Iterations 3
time step continuity errors : sum local = 0.0746065, global = -0.0115872, cumulative = 0.871056
smoothSolver:  Solving for epsilon, Initial residual = 0.00454404, Final residual = 0.000366696, No Iterations 3
smoothSolver:  Solving for k, Initial residual = 0.00563228, Final residual = 0.000420062, No Iterations 4
ExecutionTime = 1.12198 s  ClockTime = 1 s

Time = 75s

smoothSolver:  Solving for Ux, Initial residual = 0.00367492, Final residual = 0.000243035, No Iterations 6
smoothSolver:  Solving for Uy, Initial residual = 0.020322, Final residual = 0.00150386, No Iterations 6
GAMG:  Solving for p, Initial residual = 0.0175921, Final residual = 0.00167764, No Iterations 3
time step continuity errors : sum local = 0.0779145, global = 0.0117836, cumulative = 0.882839
smoothSolver:  Solving for epsilon, Initial residual = 0.00451695, Final residual = 0.000368111, No Iterations 3
smoothSolver:  Solving for k, Initial residual = 0.00560588, Final residual = 0.0004223, No Iterations 4
ExecutionTime = 1.13474 s  ClockTime = 1 s

Time = 76s

smoothSolver:  Solving for Ux, Initial residual = 0.00367761, Final residual = 0.000243299, No Iterations 6
smoothSolver:  Solving for Uy, Initial residual = 0.0204723, Final residual = 0.00151529, No Iterations 6
GAMG:  Solving for p, Initial residual = 0.0185478, Final residual = 0.00155389, No Iterations 3
time step continuity errors : sum local = 0.0721113, global = -0.0109252, cumulative = 0.871914
smoothSolver:  Solving for epsilon, Initial residual = 0.00448485, Final residual = 0.000369912, No Iterations 3
smoothSolver:  Solving for k, Initial residual = 0.00556035, Final residual = 0.000422569, No Iterations 4
ExecutionTime = 1.14746 s  ClockTime = 1 s

Time = 77s

smoothSolver:  Solving for Ux, Initial residual = 0.00366729, Final residual = 0.000242488, No Iterations 6
smoothSolver:  Solving for Uy, Initial residual = 0.0206055, Final residual = 0.00152625, No Iterations 6
GAMG:  Solving for p, Initial residual = 0.0179448, Final residual = 0.00176483, No Iterations 3
time step continuity errors : sum local = 0.0814299, global = 0.0116685, cumulative = 0.883582
smoothSolver:  Solving for epsilon, Initial residual = 0.00446176, Final residual = 0.000370917, No Iterations 3
smoothSolver:  Solving for k, Initial residual = 0.0055491, Final residual = 0.000425772, No Iterations 4
ExecutionTime = 1.16011 s  ClockTime = 1 s

Time = 78s

smoothSolver:  Solving for Ux, Initial residual = 0.00367194, Final residual = 0.000242871, No Iterations 6
smoothSolver:  Solving for Uy, Initial residual = 0.0207476, Final residual = 0.00153744, No Iterations 6
GAMG:  Solving for p, Initial residual = 0.0187287, Final residual = 0.00152699, No Iterations 3
time step continuity errors : sum local = 0.0706376, global = -0.010428, cumulative = 0.873154
smoothSolver:  Solving for epsilon, Initial residual = 0.00444124, Final residual = 0.000373562, No Iterations 3
smoothSolver:  Solving for k, Initial residual = 0.0054796, Final residual = 0.000423014, No Iterations 4
ExecutionTime = 1.17278 s  ClockTime = 1 s

Time = 79s

smoothSolver:  Solving for Ux, Initial residual = 0.00366164, Final residual = 0.000242152, No Iterations 6
smoothSolver:  Solving for Uy, Initial residual = 0.0208726, Final residual = 0.00154889, No Iterations 6
GAMG:  Solving for p, Initial residual = 0.0179048, Final residual = 0.00137641, No Iterations 4
time step continuity errors : sum local = 0.0637197, global = -0.011817, cumulative = 0.861337
smoothSolver:  Solving for epsilon, Initial residual = 0.00441518, Final residual = 0.000375338, No Iterations 3
smoothSolver:  Solving for k, Initial residual = 0.00544447, Final residual = 0.000425293, No Iterations 4
ExecutionTime = 1.18591 s  ClockTime = 1 s

Time = 80s

smoothSolver:  Solving for Ux, Initial residual = 0.0036636, Final residual = 0.000242272, No Iterations 6
smoothSolver:  Solving for Uy, Initial residual = 0.0210562, Final residual = 0.00156124, No Iterations 6
GAMG:  Solving for p, Initial residual = 0.018427, Final residual = 0.00136364, No Iterations 4
time step continuity errors : sum local = 0.0628037, global = -0.0120785, cumulative = 0.849259
smoothSolver:  Solving for epsilon, Initial residual = 0.00438487, Final residual = 0.000376624, No Iterations 3
smoothSolver:  Solving for k, Initial residual = 0.00540213, Final residual = 0.000424839, No Iterations 4
ExecutionTime = 1.19892 s  ClockTime = 1 s

Time = 81s

smoothSolver:  Solving for Ux, Initial residual = 0.00365769, Final residual = 0.000242151, No Iterations 6
smoothSolver:  Solving for Uy, Initial residual = 0.0211684, Final residual = 0.00157275, No Iterations 6
GAMG:  Solving for p, Initial residual = 0.0181475, Final residual = 0.00139554, No Iterations 4
time step continuity errors : sum local = 0.0644625, global = -0.0124302, cumulative = 0.836829
smoothSolver:  Solving for epsilon, Initial residual = 0.00438852, Final residual = 0.000381121, No Iterations 3
smoothSolver:  Solving for k, Initial residual = 0.00538284, Final residual = 0.000427144, No Iterations 4
ExecutionTime = 1.21186 s  ClockTime = 1 s

Time = 82s

smoothSolver:  Solving for Ux, Initial residual = 0.00366131, Final residual = 0.000241998, No Iterations 6
smoothSolver:  Solving for Uy, Initial residual = 0.0213481, Final residual = 0.00158472, No Iterations 6
GAMG:  Solving for p, Initial residual = 0.0185044, Final residual = 0.00140004, No Iterations 4
time step continuity errors : sum local = 0.0648402, global = -0.0126069, cumulative = 0.824222
smoothSolver:  Solving for epsilon, Initial residual = 0.00435835, Final residual = 0.000383401, No Iterations 3
smoothSolver:  Solving for k, Initial residual = 0.00535296, Final residual = 0.000429369, No Iterations 4
ExecutionTime = 1.22484 s  ClockTime = 1 s

Time = 83s

smoothSolver:  Solving for Ux, Initial residual = 0.00365346, Final residual = 0.000241845, No Iterations 6
smoothSolver:  Solving for Uy, Initial residual = 0.0214852, Final residual = 0.00159716, No Iterations 6
GAMG:  Solving for p, Initial residual = 0.0181297, Final residual = 0.00140919, No Iterations 4
time step continuity errors : sum local = 0.0648009, global = -0.0127067, cumulative = 0.811515
smoothSolver:  Solving for epsilon, Initial residual = 0.00434448, Final residual = 0.000384833, No Iterations 3
smoothSolver:  Solving for k, Initial residual = 0.00531602, Final residual = 0.000429712, No Iterations 4
ExecutionTime = 1.23791 s  ClockTime = 1 s

Time = 84s

smoothSolver:  Solving for Ux, Initial residual = 0.00365477, Final residual = 0.000241669, No Iterations 6
smoothSolver:  Solving for Uy, Initial residual = 0.0216779, Final residual = 0.00161071, No Iterations 6
GAMG:  Solving for p, Initial residual = 0.0183593, Final residual = 0.00140336, No Iterations 4
time step continuity errors : sum local = 0.0648549, global = -0.0126699, cumulative = 0.798845
smoothSolver:  Solving for epsilon, Initial residual = 0.00430586, Final residual = 0.000385495, No Iterations 3
smoothSolver:  Solving for k, Initial residual = 0.0052717, Final residual = 0.000430086, No Iterations 4
ExecutionTime = 1.25101 s  ClockTime = 1 s

Time = 85s

smoothSolver:  Solving for Ux, Initial residual = 0.00364731, Final residual = 0.000241522, No Iterations 6
smoothSolver:  Solving for Uy, Initial residual = 0.0218072, Final residual = 0.00162398, No Iterations 6
GAMG:  Solving for p, Initial residual = 0.0178173, Final residual = 0.00139954, No Iterations 4
time step continuity errors : sum local = 0.0647418, global = -0.0128102, cumulative = 0.786035
smoothSolver:  Solving for epsilon, Initial residual = 0.00430827, Final residual = 0.000388775, No Iterations 3
smoothSolver:  Solving for k, Initial residual = 0.00525105, Final residual = 0.000432357, No Iterations 4
ExecutionTime = 1.26401 s  ClockTime = 1 s

Time = 86s

smoothSolver:  Solving for Ux, Initial residual = 0.003649, Final residual = 0.000241378, No Iterations 6
smoothSolver:  Solving for Uy, Initial residual = 0.0220269, Final residual = 0.0016381, No Iterations 6
GAMG:  Solving for p, Initial residual = 0.0179169, Final residual = 0.00142891, No Iterations 4
time step continuity errors : sum local = 0.0656351, global = -0.0127373, cumulative = 0.773298
smoothSolver:  Solving for epsilon, Initial residual = 0.00427131, Final residual = 0.000389531, No Iterations 3
smoothSolver:  Solving for k, Initial residual = 0.00524249, Final residual = 0.00043596, No Iterations 4
ExecutionTime = 1.27687 s  ClockTime = 1 s

Time = 87s

smoothSolver:  Solving for Ux, Initial residual = 0.00363765, Final residual = 0.000241135, No Iterations 6
smoothSolver:  Solving for Uy, Initial residual = 0.0221775, Final residual = 0.00165307, No Iterations 6
GAMG:  Solving for p, Initial residual = 0.017571, Final residual = 0.00142809, No Iterations 4
time step continuity errors : sum local = 0.0659259, global = -0.0129955, cumulative = 0.760302
smoothSolver:  Solving for epsilon, Initial residual = 0.00426783, Final residual = 0.000391647, No Iterations 3
smoothSolver:  Solving for k, Initial residual = 0.0051922, Final residual = 0.000435063, No Iterations 4
ExecutionTime = 1.29002 s  ClockTime = 1 s

Time = 88s

smoothSolver:  Solving for Ux, Initial residual = 0.00363852, Final residual = 0.000240946, No Iterations 6
smoothSolver:  Solving for Uy, Initial residual = 0.0223696, Final residual = 0.00166819, No Iterations 6
GAMG:  Solving for p, Initial residual = 0.0166762, Final residual = 0.00142062, No Iterations 4
time step continuity errors : sum local = 0.0658566, global = -0.0132223, cumulative = 0.74708
smoothSolver:  Solving for epsilon, Initial residual = 0.00423731, Final residual = 0.00039369, No Iterations 3
smoothSolver:  Solving for k, Initial residual = 0.00519581, Final residual = 0.000439643, No Iterations 4
ExecutionTime = 1.30317 s  ClockTime = 1 s

Time = 89s

smoothSolver:  Solving for Ux, Initial residual = 0.00362722, Final residual = 0.000240688, No Iterations 6
smoothSolver:  Solving for Uy, Initial residual = 0.0225471, Final residual = 0.00168404, No Iterations 6
GAMG:  Solving for p, Initial residual = 0.0163397, Final residual = 0.00145713, No Iterations 4
time step continuity errors : sum local = 0.0671316, global = -0.0133654, cumulative = 0.733715
smoothSolver:  Solving for epsilon, Initial residual = 0.00421606, Final residual = 0.00039464, No Iterations 3
smoothSolver:  Solving for k, Initial residual = 0.00517234, Final residual = 0.000441064, No Iterations 4
ExecutionTime = 1.31642 s  ClockTime = 1 s

Time = 90s

smoothSolver:  Solving for Ux, Initial residual = 0.00361907, Final residual = 0.000240414, No Iterations 6
smoothSolver:  Solving for Uy, Initial residual = 0.0227245, Final residual = 0.00170053, No Iterations 6
GAMG:  Solving for p, Initial residual = 0.0160816, Final residual = 0.00147753, No Iterations 4
time step continuity errors : sum local = 0.0685296, global = -0.013706, cumulative = 0.720009
smoothSolver:  Solving for epsilon, Initial residual = 0.00420343, Final residual = 0.000396796, No Iterations 3
smoothSolver:  Solving for k, Initial residual = 0.00516035, Final residual = 0.000443501, No Iterations 4
ExecutionTime = 1.32933 s  ClockTime = 1 s

Time = 91s

smoothSolver:  Solving for Ux, Initial residual = 0.00361284, Final residual = 0.000240108, No Iterations 6
smoothSolver:  Solving for Uy, Initial residual = 0.0229268, Final residual = 0.00171655, No Iterations 6
GAMG:  Solving for p, Initial residual = 0.015674, Final residual = 0.00150709, No Iterations 4
time step continuity errors : sum local = 0.0700643, global = -0.0139243, cumulative = 0.706084
smoothSolver:  Solving for epsilon, Initial residual = 0.00417913, Final residual = 0.000396981, No Iterations 3
smoothSolver:  Solving for k, Initial residual = 0.00512209, Final residual = 0.00044356, No Iterations 4
ExecutionTime = 1.34226 s  ClockTime = 1 s

Time = 92s

smoothSolver:  Solving for Ux, Initial residual = 0.00360547, Final residual = 0.000239726, No Iterations 6
smoothSolver:  Solving for Uy, Initial residual = 0.0231464, Final residual = 0.00173281, No Iterations 6
GAMG:  Solving for p, Initial residual = 0.0154615, Final residual = 0.00122916, No Iterations 5
time step continuity errors : sum local = 0.0567843, global = 0.0131554, cumulative = 0.71924
smoothSolver:  Solving for epsilon, Initial residual = 0.0041549, Final residual = 0.000397204, No Iterations 3
smoothSolver:  Solving for k, Initial residual = 0.00512, Final residual = 0.000446981, No Iterations 4
ExecutionTime = 1.35576 s  ClockTime = 1 s

Time = 93s

smoothSolver:  Solving for Ux, Initial residual = 0.00360099, Final residual = 0.000239001, No Iterations 6
smoothSolver:  Solving for Uy, Initial residual = 0.0233889, Final residual = 0.00175129, No Iterations 6
GAMG:  Solving for p, Initial residual = 0.0151682, Final residual = 0.00149064, No Iterations 3
time step continuity errors : sum local = 0.0689753, global = 0.0109791, cumulative = 0.730219
smoothSolver:  Solving for epsilon, Initial residual = 0.00413046, Final residual = 0.000397279, No Iterations 3
smoothSolver:  Solving for k, Initial residual = 0.00508134, Final residual = 0.000446857, No Iterations 4
ExecutionTime = 1.37583 s  ClockTime = 1 s

Time = 94s

smoothSolver:  Solving for Ux, Initial residual = 0.00359896, Final residual = 0.000239428, No Iterations 6
smoothSolver:  Solving for Uy, Initial residual = 0.0235645, Final residual = 0.0017683, No Iterations 6
GAMG:  Solving for p, Initial residual = 0.0151677, Final residual = 0.00124418, No Iterations 4
time step continuity errors : sum local = 0.0576815, global = -0.0127013, cumulative = 0.717517
smoothSolver:  Solving for epsilon, Initial residual = 0.00410819, Final residual = 0.000397027, No Iterations 3
smoothSolver:  Solving for k, Initial residual = 0.00507247, Final residual = 0.000448477, No Iterations 4
ExecutionTime = 1.39186 s  ClockTime = 1 s

Time = 95s

smoothSolver:  Solving for Ux, Initial residual = 0.00357773, Final residual = 0.000237741, No Iterations 6
smoothSolver:  Solving for Uy, Initial residual = 0.0238346, Final residual = 0.00178615, No Iterations 6
GAMG:  Solving for p, Initial residual = 0.0146954, Final residual = 0.00114938, No Iterations 5
time step continuity errors : sum local = 0.0530094, global = 0.0108182, cumulative = 0.728336
smoothSolver:  Solving for epsilon, Initial residual = 0.00408664, Final residual = 0.000396312, No Iterations 3
smoothSolver:  Solving for k, Initial residual = 0.00506974, Final residual = 0.000451164, No Iterations 4
ExecutionTime = 1.40564 s  ClockTime = 1 s

Time = 96s

smoothSolver:  Solving for Ux, Initial residual = 0.00357065, Final residual = 0.000237708, No Iterations 6
smoothSolver:  Solving for Uy, Initial residual = 0.0240409, Final residual = 0.00180387, No Iterations 6
GAMG:  Solving for p, Initial residual = 0.0148268, Final residual = 0.00123225, No Iterations 4
time step continuity errors : sum local = 0.0569406, global = -0.0138912, cumulative = 0.714444
smoothSolver:  Solving for epsilon, Initial residual = 0.00406932, Final residual = 0.000395558, No Iterations 3
smoothSolver:  Solving for k, Initial residual = 0.00506486, Final residual = 0.000453156, No Iterations 4
ExecutionTime = 1.41845 s  ClockTime = 1 s

Time = 97s

smoothSolver:  Solving for Ux, Initial residual = 0.00356206, Final residual = 0.00023717, No Iterations 6
smoothSolver:  Solving for Uy, Initial residual = 0.0242264, Final residual = 0.00182032, No Iterations 6
GAMG:  Solving for p, Initial residual = 0.0145835, Final residual = 0.0012245, No Iterations 5
time step continuity errors : sum local = 0.0567413, global = 0.0118593, cumulative = 0.726304
smoothSolver:  Solving for epsilon, Initial residual = 0.00405151, Final residual = 0.000395087, No Iterations 3
smoothSolver:  Solving for k, Initial residual = 0.00505921, Final residual = 0.000454915, No Iterations 4
ExecutionTime = 1.43179 s  ClockTime = 1 s

Time = 98s

smoothSolver:  Solving for Ux, Initial residual = 0.00355295, Final residual = 0.0002367, No Iterations 6
smoothSolver:  Solving for Uy, Initial residual = 0.0244615, Final residual = 0.00183619, No Iterations 6
GAMG:  Solving for p, Initial residual = 0.0146219, Final residual = 0.0013355, No Iterations 4
time step continuity errors : sum local = 0.0613241, global = -0.014672, cumulative = 0.711632
smoothSolver:  Solving for epsilon, Initial residual = 0.00403582, Final residual = 0.000393211, No Iterations 3
smoothSolver:  Solving for k, Initial residual = 0.00506496, Final residual = 0.000457015, No Iterations 4
ExecutionTime = 1.4445 s  ClockTime = 1 s

Time = 99s

smoothSolver:  Solving for Ux, Initial residual = 0.00353757, Final residual = 0.000235679, No Iterations 6
smoothSolver:  Solving for Uy, Initial residual = 0.0246666, Final residual = 0.00185412, No Iterations 6
GAMG:  Solving for p, Initial residual = 0.0146043, Final residual = 0.00130029, No Iterations 5
time step continuity errors : sum local = 0.0599841, global = 0.0126737, cumulative = 0.724305
smoothSolver:  Solving for epsilon, Initial residual = 0.00400523, Final residual = 0.000390848, No Iterations 3
smoothSolver:  Solving for k, Initial residual = 0.00505982, Final residual = 0.000458388, No Iterations 4
ExecutionTime = 1.45796 s  ClockTime = 1 s

Time = 100s

smoothSolver:  Solving for Ux, Initial residual = 0.00352539, Final residual = 0.000235147, No Iterations 6
smoothSolver:  Solving for Uy, Initial residual = 0.0248844, Final residual = 0.00187064, No Iterations 6
GAMG:  Solving for p, Initial residual = 0.0145718, Final residual = 0.00135274, No Iterations 4
time step continuity errors : sum local = 0.0622769, global = -0.0145345, cumulative = 0.709771
smoothSolver:  Solving for epsilon, Initial residual = 0.00398466, Final residual = 0.000388856, No Iterations 3
smoothSolver:  Solving for k, Initial residual = 0.00505336, Final residual = 0.000459059, No Iterations 4
ExecutionTime = 1.49146 s  ClockTime = 1 s

streamlines streamlines write:
    Seeded 10 particles
    Sampled 12075 locations

Time = 101s

smoothSolver:  Solving for Ux, Initial residual = 0.00350873, Final residual = 0.000234076, No Iterations 6
smoothSolver:  Solving for Uy, Initial residual = 0.0251008, Final residual = 0.00188731, No Iterations 6
GAMG:  Solving for p, Initial residual = 0.0144529, Final residual = 0.00134028, No Iterations 5
time step continuity errors : sum local = 0.0613328, global = 0.0126501, cumulative = 0.722421
smoothSolver:  Solving for epsilon, Initial residual = 0.00395623, Final residual = 0.00038537, No Iterations 3
smoothSolver:  Solving for k, Initial residual = 0.00505084, Final residual = 0.000460071, No Iterations 4
ExecutionTime = 1.55852 s  ClockTime = 1 s

Time = 102s

smoothSolver:  Solving for Ux, Initial residual = 0.00349419, Final residual = 0.000233493, No Iterations 6
smoothSolver:  Solving for Uy, Initial residual = 0.0253155, Final residual = 0.00190398, No Iterations 6
GAMG:  Solving for p, Initial residual = 0.0145435, Final residual = 0.00137231, No Iterations 4
time step continuity errors : sum local = 0.062762, global = -0.0141481, cumulative = 0.708273
smoothSolver:  Solving for epsilon, Initial residual = 0.00394942, Final residual = 0.000384538, No Iterations 3
smoothSolver:  Solving for k, Initial residual = 0.00503925, Final residual = 0.000459407, No Iterations 4
ExecutionTime = 1.57137 s  ClockTime = 1 s

Time = 103s

smoothSolver:  Solving for Ux, Initial residual = 0.00347674, Final residual = 0.000232374, No Iterations 6
smoothSolver:  Solving for Uy, Initial residual = 0.0255181, Final residual = 0.00192046, No Iterations 6
GAMG:  Solving for p, Initial residual = 0.0143974, Final residual = 0.00133137, No Iterations 5
time step continuity errors : sum local = 0.0609667, global = 0.012214, cumulative = 0.720487
smoothSolver:  Solving for epsilon, Initial residual = 0.0039161, Final residual = 0.000381026, No Iterations 3
smoothSolver:  Solving for k, Initial residual = 0.00507162, Final residual = 0.000463107, No Iterations 4
ExecutionTime = 1.5851 s  ClockTime = 1 s

Time = 104s

smoothSolver:  Solving for Ux, Initial residual = 0.003462, Final residual = 0.000231707, No Iterations 6
smoothSolver:  Solving for Uy, Initial residual = 0.025744, Final residual = 0.00193615, No Iterations 6
GAMG:  Solving for p, Initial residual = 0.0144253, Final residual = 0.00136945, No Iterations 4
time step continuity errors : sum local = 0.0621023, global = -0.0134858, cumulative = 0.707001
smoothSolver:  Solving for epsilon, Initial residual = 0.00390538, Final residual = 0.000378398, No Iterations 3
smoothSolver:  Solving for k, Initial residual = 0.00506498, Final residual = 0.000462653, No Iterations 4
ExecutionTime = 1.59777 s  ClockTime = 1 s

Time = 105s

smoothSolver:  Solving for Ux, Initial residual = 0.00344179, Final residual = 0.000230515, No Iterations 6
smoothSolver:  Solving for Uy, Initial residual = 0.025943, Final residual = 0.00195229, No Iterations 6
GAMG:  Solving for p, Initial residual = 0.014405, Final residual = 0.00132351, No Iterations 5
time step continuity errors : sum local = 0.0601791, global = 0.0115807, cumulative = 0.718582
smoothSolver:  Solving for epsilon, Initial residual = 0.0038892, Final residual = 0.000376077, No Iterations 3
smoothSolver:  Solving for k, Initial residual = 0.00508137, Final residual = 0.000464233, No Iterations 4
ExecutionTime = 1.611 s  ClockTime = 1 s

Time = 106s

smoothSolver:  Solving for Ux, Initial residual = 0.00342663, Final residual = 0.00022989, No Iterations 6
smoothSolver:  Solving for Uy, Initial residual = 0.026139, Final residual = 0.00196845, No Iterations 6
GAMG:  Solving for p, Initial residual = 0.0143755, Final residual = 0.00133552, No Iterations 4
time step continuity errors : sum local = 0.0605531, global = -0.0127717, cumulative = 0.70581
smoothSolver:  Solving for epsilon, Initial residual = 0.00387636, Final residual = 0.000374148, No Iterations 3
smoothSolver:  Solving for k, Initial residual = 0.00508092, Final residual = 0.000464182, No Iterations 4
ExecutionTime = 1.62366 s  ClockTime = 1 s

Time = 107s

smoothSolver:  Solving for Ux, Initial residual = 0.00340501, Final residual = 0.000228663, No Iterations 6
smoothSolver:  Solving for Uy, Initial residual = 0.026342, Final residual = 0.00198324, No Iterations 6
GAMG:  Solving for p, Initial residual = 0.0143237, Final residual = 0.00130092, No Iterations 5
time step continuity errors : sum local = 0.0586106, global = 0.010779, cumulative = 0.716589
smoothSolver:  Solving for epsilon, Initial residual = 0.00384606, Final residual = 0.000369799, No Iterations 3
smoothSolver:  Solving for k, Initial residual = 0.00509108, Final residual = 0.000464508, No Iterations 4
ExecutionTime = 1.63712 s  ClockTime = 1 s

Time = 108s

smoothSolver:  Solving for Ux, Initial residual = 0.00338934, Final residual = 0.000228058, No Iterations 6
smoothSolver:  Solving for Uy, Initial residual = 0.0265368, Final residual = 0.00200007, No Iterations 6
GAMG:  Solving for p, Initial residual = 0.0143645, Final residual = 0.0012785, No Iterations 4
time step continuity errors : sum local = 0.0575187, global = -0.0117606, cumulative = 0.704828
smoothSolver:  Solving for epsilon, Initial residual = 0.00384518, Final residual = 0.000368621, No Iterations 3
smoothSolver:  Solving for k, Initial residual = 0.00510937, Final residual = 0.000465804, No Iterations 4
ExecutionTime = 1.65029 s  ClockTime = 1 s

Time = 109s

smoothSolver:  Solving for Ux, Initial residual = 0.00336665, Final residual = 0.0002268, No Iterations 6
smoothSolver:  Solving for Uy, Initial residual = 0.026715, Final residual = 0.00201504, No Iterations 6
GAMG:  Solving for p, Initial residual = 0.0142737, Final residual = 0.00122949, No Iterations 5
time step continuity errors : sum local = 0.0552715, global = 0.00961845, cumulative = 0.714447
smoothSolver:  Solving for epsilon, Initial residual = 0.00382611, Final residual = 0.000367416, No Iterations 3
smoothSolver:  Solving for k, Initial residual = 0.00511463, Final residual = 0.000465134, No Iterations 4
ExecutionTime = 1.66355 s  ClockTime = 1 s

Time = 110s

smoothSolver:  Solving for Ux, Initial residual = 0.00335287, Final residual = 0.000226339, No Iterations 6
smoothSolver:  Solving for Uy, Initial residual = 0.0269261, Final residual = 0.00203096, No Iterations 6
GAMG:  Solving for p, Initial residual = 0.0143608, Final residual = 0.00116381, No Iterations 4
time step continuity errors : sum local = 0.0518521, global = -0.0107673, cumulative = 0.70368
smoothSolver:  Solving for epsilon, Initial residual = 0.0038169, Final residual = 0.000364453, No Iterations 3
smoothSolver:  Solving for k, Initial residual = 0.00513686, Final residual = 0.000466289, No Iterations 4
ExecutionTime = 1.67628 s  ClockTime = 1 s

Time = 111s

smoothSolver:  Solving for Ux, Initial residual = 0.00332805, Final residual = 0.000225092, No Iterations 6
smoothSolver:  Solving for Uy, Initial residual = 0.0271182, Final residual = 0.00204772, No Iterations 6
GAMG:  Solving for p, Initial residual = 0.0143134, Final residual = 0.00113625, No Iterations 5
time step continuity errors : sum local = 0.0505753, global = 0.00760576, cumulative = 0.711285
smoothSolver:  Solving for epsilon, Initial residual = 0.00378758, Final residual = 0.000361989, No Iterations 3
smoothSolver:  Solving for k, Initial residual = 0.00514578, Final residual = 0.000465846, No Iterations 4
ExecutionTime = 1.68965 s  ClockTime = 1 s

Time = 112s

smoothSolver:  Solving for Ux, Initial residual = 0.0033147, Final residual = 0.000224828, No Iterations 6
smoothSolver:  Solving for Uy, Initial residual = 0.0272907, Final residual = 0.00206399, No Iterations 6
GAMG:  Solving for p, Initial residual = 0.0143821, Final residual = 0.00115361, No Iterations 4
time step continuity errors : sum local = 0.0512529, global = -0.0100926, cumulative = 0.701193
smoothSolver:  Solving for epsilon, Initial residual = 0.00378715, Final residual = 0.000359681, No Iterations 3
smoothSolver:  Solving for k, Initial residual = 0.00516302, Final residual = 0.000466213, No Iterations 4
ExecutionTime = 1.70267 s  ClockTime = 1 s

Time = 113s

smoothSolver:  Solving for Ux, Initial residual = 0.00329261, Final residual = 0.000223799, No Iterations 6
smoothSolver:  Solving for Uy, Initial residual = 0.0274779, Final residual = 0.00207865, No Iterations 6
GAMG:  Solving for p, Initial residual = 0.0143903, Final residual = 0.00109277, No Iterations 5
time step continuity errors : sum local = 0.0482043, global = 0.00679152, cumulative = 0.707984
smoothSolver:  Solving for epsilon, Initial residual = 0.00377128, Final residual = 0.000357599, No Iterations 3
smoothSolver:  Solving for k, Initial residual = 0.00517185, Final residual = 0.000465982, No Iterations 4
ExecutionTime = 1.71632 s  ClockTime = 1 s

Time = 114s

smoothSolver:  Solving for Ux, Initial residual = 0.00328073, Final residual = 0.000223545, No Iterations 6
smoothSolver:  Solving for Uy, Initial residual = 0.0276444, Final residual = 0.00209489, No Iterations 6
GAMG:  Solving for p, Initial residual = 0.0145151, Final residual = 0.00106512, No Iterations 4
time step continuity errors : sum local = 0.0469974, global = -0.00885878, cumulative = 0.699126
smoothSolver:  Solving for epsilon, Initial residual = 0.00376797, Final residual = 0.00035426, No Iterations 3
smoothSolver:  Solving for k, Initial residual = 0.00519045, Final residual = 0.000465492, No Iterations 4
ExecutionTime = 1.72921 s  ClockTime = 1 s

Time = 115s

smoothSolver:  Solving for Ux, Initial residual = 0.00326043, Final residual = 0.000222749, No Iterations 6
smoothSolver:  Solving for Uy, Initial residual = 0.0278203, Final residual = 0.00210914, No Iterations 6
GAMG:  Solving for p, Initial residual = 0.0146062, Final residual = 0.00101488, No Iterations 5
time step continuity errors : sum local = 0.0446743, global = 0.00595432, cumulative = 0.70508
smoothSolver:  Solving for epsilon, Initial residual = 0.00376232, Final residual = 0.000353978, No Iterations 3
smoothSolver:  Solving for k, Initial residual = 0.00519915, Final residual = 0.00046454, No Iterations 4
ExecutionTime = 1.74245 s  ClockTime = 2 s

Time = 116s

smoothSolver:  Solving for Ux, Initial residual = 0.00325266, Final residual = 0.000222849, No Iterations 6
[...]
GAMG:  Solving for p, Initial residual = 0.00251561, Final residual = 0.000173297, No Iterations 5
time step continuity errors : sum local = 0.00736797, global = 0.000370898, cumulative = 0.554515
smoothSolver:  Solving for epsilon, Initial residual = 0.000334799, Final residual = 2.46706e-05, No Iterations 3
smoothSolver:  Solving for k, Initial residual = 0.000574776, Final residual = 3.57065e-05, No Iterations 4
ExecutionTime = 3.74389 s  ClockTime = 3 s

Time = 258s

smoothSolver:  Solving for Ux, Initial residual = 0.000313596, Final residual = 2.13619e-05, No Iterations 6
smoothSolver:  Solving for Uy, Initial residual = 0.00259826, Final residual = 0.000184164, No Iterations 6
GAMG:  Solving for p, Initial residual = 0.00234756, Final residual = 0.000166455, No Iterations 5
time step continuity errors : sum local = 0.00708083, global = 0.000341699, cumulative = 0.554857
smoothSolver:  Solving for epsilon, Initial residual = 0.000329299, Final residual = 2.39122e-05, No Iterations 3
smoothSolver:  Solving for k, Initial residual = 0.000559342, Final residual = 3.46095e-05, No Iterations 4
ExecutionTime = 3.75801 s  ClockTime = 4 s

Time = 259s

smoothSolver:  Solving for Ux, Initial residual = 0.000304664, Final residual = 2.07884e-05, No Iterations 6
smoothSolver:  Solving for Uy, Initial residual = 0.00254968, Final residual = 0.000177332, No Iterations 6
GAMG:  Solving for p, Initial residual = 0.00259328, Final residual = 0.000238585, No Iterations 4
time step continuity errors : sum local = 0.0101591, global = -0.000770758, cumulative = 0.554086
smoothSolver:  Solving for epsilon, Initial residual = 0.000319453, Final residual = 2.31335e-05, No Iterations 3
smoothSolver:  Solving for k, Initial residual = 0.000543682, Final residual = 3.35692e-05, No Iterations 4
ExecutionTime = 3.77161 s  ClockTime = 4 s

Time = 260s

smoothSolver:  Solving for Ux, Initial residual = 0.000295192, Final residual = 2.02633e-05, No Iterations 6
smoothSolver:  Solving for Uy, Initial residual = 0.00244309, Final residual = 0.000170187, No Iterations 6
GAMG:  Solving for p, Initial residual = 0.002341, Final residual = 0.00016937, No Iterations 5
time step continuity errors : sum local = 0.00722149, global = 0.000344922, cumulative = 0.554431
smoothSolver:  Solving for epsilon, Initial residual = 0.000312161, Final residual = 2.23982e-05, No Iterations 3
smoothSolver:  Solving for k, Initial residual = 0.000530269, Final residual = 3.25251e-05, No Iterations 4
ExecutionTime = 3.78555 s  ClockTime = 4 s

Time = 261s

smoothSolver:  Solving for Ux, Initial residual = 0.000286651, Final residual = 1.97452e-05, No Iterations 6
smoothSolver:  Solving for Uy, Initial residual = 0.00234856, Final residual = 0.00016316, No Iterations 6
GAMG:  Solving for p, Initial residual = 0.00213905, Final residual = 0.000153066, No Iterations 5
time step continuity errors : sum local = 0.00652471, global = 0.000313528, cumulative = 0.554745
smoothSolver:  Solving for epsilon, Initial residual = 0.000301929, Final residual = 2.16178e-05, No Iterations 3
smoothSolver:  Solving for k, Initial residual = 0.000513732, Final residual = 3.14422e-05, No Iterations 4
ExecutionTime = 3.7994 s  ClockTime = 4 s

Time = 262s

smoothSolver:  Solving for Ux, Initial residual = 0.000279636, Final residual = 1.92482e-05, No Iterations 6
smoothSolver:  Solving for Uy, Initial residual = 0.00229626, Final residual = 0.000155884, No Iterations 6
GAMG:  Solving for p, Initial residual = 0.00247432, Final residual = 0.000215625, No Iterations 4
time step continuity errors : sum local = 0.00919355, global = -0.000657383, cumulative = 0.554087
smoothSolver:  Solving for epsilon, Initial residual = 0.000291465, Final residual = 2.09235e-05, No Iterations 3
smoothSolver:  Solving for k, Initial residual = 0.000499489, Final residual = 3.05377e-05, No Iterations 4
ExecutionTime = 3.81288 s  ClockTime = 4 s

Time = 263s

smoothSolver:  Solving for Ux, Initial residual = 0.000271829, Final residual = 1.87919e-05, No Iterations 6
smoothSolver:  Solving for Uy, Initial residual = 0.00219548, Final residual = 0.0001485, No Iterations 6
GAMG:  Solving for p, Initial residual = 0.00244317, Final residual = 0.000224801, No Iterations 4
time step continuity errors : sum local = 0.00960418, global = -0.00074844, cumulative = 0.553339
smoothSolver:  Solving for epsilon, Initial residual = 0.000279871, Final residual = 2.00737e-05, No Iterations 3
smoothSolver:  Solving for k, Initial residual = 0.000482659, Final residual = 2.94439e-05, No Iterations 4
ExecutionTime = 3.82632 s  ClockTime = 4 s

Time = 264s

smoothSolver:  Solving for Ux, Initial residual = 0.000264245, Final residual = 1.82976e-05, No Iterations 6
smoothSolver:  Solving for Uy, Initial residual = 0.00208476, Final residual = 0.000141468, No Iterations 6
GAMG:  Solving for p, Initial residual = 0.00185996, Final residual = 0.000157441, No Iterations 5
time step continuity errors : sum local = 0.00671772, global = 0.000478124, cumulative = 0.553817
smoothSolver:  Solving for epsilon, Initial residual = 0.000271376, Final residual = 1.92904e-05, No Iterations 3
smoothSolver:  Solving for k, Initial residual = 0.000467464, Final residual = 2.83947e-05, No Iterations 4
ExecutionTime = 3.84042 s  ClockTime = 4 s

Time = 265s

smoothSolver:  Solving for Ux, Initial residual = 0.000257561, Final residual = 1.77309e-05, No Iterations 6
smoothSolver:  Solving for Uy, Initial residual = 0.00202866, Final residual = 0.000134447, No Iterations 6
GAMG:  Solving for p, Initial residual = 0.00205901, Final residual = 0.00018717, No Iterations 4
time step continuity errors : sum local = 0.00798451, global = -0.000604794, cumulative = 0.553212
smoothSolver:  Solving for epsilon, Initial residual = 0.000263263, Final residual = 1.84752e-05, No Iterations 3
smoothSolver:  Solving for k, Initial residual = 0.000451771, Final residual = 2.7419e-05, No Iterations 4
ExecutionTime = 3.85391 s  ClockTime = 4 s

Time = 266s

smoothSolver:  Solving for Ux, Initial residual = 0.000251615, Final residual = 1.72594e-05, No Iterations 6
smoothSolver:  Solving for Uy, Initial residual = 0.00194123, Final residual = 0.000127827, No Iterations 6
GAMG:  Solving for p, Initial residual = 0.00239066, Final residual = 0.000199574, No Iterations 4
time step continuity errors : sum local = 0.00852971, global = -0.000699846, cumulative = 0.552512
smoothSolver:  Solving for epsilon, Initial residual = 0.000254519, Final residual = 1.7637e-05, No Iterations 3
smoothSolver:  Solving for k, Initial residual = 0.000436063, Final residual = 2.63737e-05, No Iterations 4
ExecutionTime = 3.86787 s  ClockTime = 4 s

Time = 267s

smoothSolver:  Solving for Ux, Initial residual = 0.000244755, Final residual = 1.67319e-05, No Iterations 6
smoothSolver:  Solving for Uy, Initial residual = 0.00184035, Final residual = 0.000121717, No Iterations 6
GAMG:  Solving for p, Initial residual = 0.0018895, Final residual = 0.000154787, No Iterations 5
time step continuity errors : sum local = 0.00660555, global = 0.000746721, cumulative = 0.553259
smoothSolver:  Solving for epsilon, Initial residual = 0.000244481, Final residual = 1.6825e-05, No Iterations 3
smoothSolver:  Solving for k, Initial residual = 0.00041979, Final residual = 2.54034e-05, No Iterations 4
ExecutionTime = 3.88186 s  ClockTime = 4 s

Time = 268s

smoothSolver:  Solving for Ux, Initial residual = 0.00023732, Final residual = 1.60665e-05, No Iterations 6
smoothSolver:  Solving for Uy, Initial residual = 0.00178915, Final residual = 0.000115657, No Iterations 6
GAMG:  Solving for p, Initial residual = 0.00209251, Final residual = 0.000156242, No Iterations 4
time step continuity errors : sum local = 0.00666314, global = -0.000475746, cumulative = 0.552783
smoothSolver:  Solving for epsilon, Initial residual = 0.000234326, Final residual = 1.61456e-05, No Iterations 3
smoothSolver:  Solving for k, Initial residual = 0.000404847, Final residual = 2.44859e-05, No Iterations 4
ExecutionTime = 3.89543 s  ClockTime = 4 s

Time = 269s

smoothSolver:  Solving for Ux, Initial residual = 0.00023089, Final residual = 1.55329e-05, No Iterations 6
smoothSolver:  Solving for Uy, Initial residual = 0.00172709, Final residual = 0.000170609, No Iterations 5
GAMG:  Solving for p, Initial residual = 0.00230607, Final residual = 0.000228856, No Iterations 3
time step continuity errors : sum local = 0.00977133, global = 0.000674012, cumulative = 0.553457
smoothSolver:  Solving for epsilon, Initial residual = 0.000224346, Final residual = 1.53836e-05, No Iterations 3
smoothSolver:  Solving for k, Initial residual = 0.000388478, Final residual = 2.3546e-05, No Iterations 4
ExecutionTime = 3.90828 s  ClockTime = 4 s

Time = 270s

smoothSolver:  Solving for Ux, Initial residual = 0.000222467, Final residual = 1.49099e-05, No Iterations 6
smoothSolver:  Solving for Uy, Initial residual = 0.00163384, Final residual = 0.000106392, No Iterations 6
GAMG:  Solving for p, Initial residual = 0.00178285, Final residual = 0.000174647, No Iterations 4
time step continuity errors : sum local = 0.0074492, global = 0.000523676, cumulative = 0.553981
smoothSolver:  Solving for epsilon, Initial residual = 0.000216231, Final residual = 1.46762e-05, No Iterations 3
smoothSolver:  Solving for k, Initial residual = 0.0003747, Final residual = 2.25983e-05, No Iterations 4
ExecutionTime = 3.92182 s  ClockTime = 4 s

Time = 271s

smoothSolver:  Solving for Ux, Initial residual = 0.000214557, Final residual = 1.41722e-05, No Iterations 6
smoothSolver:  Solving for Uy, Initial residual = 0.00156878, Final residual = 0.000101498, No Iterations 6
GAMG:  Solving for p, Initial residual = 0.00176823, Final residual = 0.000145839, No Iterations 4
time step continuity errors : sum local = 0.00621416, global = 0.000438961, cumulative = 0.55442
smoothSolver:  Solving for epsilon, Initial residual = 0.000209425, Final residual = 1.40377e-05, No Iterations 3
smoothSolver:  Solving for k, Initial residual = 0.000360392, Final residual = 2.17362e-05, No Iterations 4
ExecutionTime = 3.93528 s  ClockTime = 4 s

Time = 272s

smoothSolver:  Solving for Ux, Initial residual = 0.000207973, Final residual = 1.36427e-05, No Iterations 6
smoothSolver:  Solving for Uy, Initial residual = 0.00150253, Final residual = 0.000149954, No Iterations 5
GAMG:  Solving for p, Initial residual = 0.00210209, Final residual = 0.000121436, No Iterations 4
time step continuity errors : sum local = 0.00517836, global = 0.000272767, cumulative = 0.554693
smoothSolver:  Solving for epsilon, Initial residual = 0.000203265, Final residual = 1.34087e-05, No Iterations 3
smoothSolver:  Solving for k, Initial residual = 0.000346897, Final residual = 2.08966e-05, No Iterations 4
ExecutionTime = 3.94859 s  ClockTime = 4 s

Time = 273s

smoothSolver:  Solving for Ux, Initial residual = 0.00019969, Final residual = 1.29823e-05, No Iterations 6
smoothSolver:  Solving for Uy, Initial residual = 0.00147946, Final residual = 0.000146258, No Iterations 5
GAMG:  Solving for p, Initial residual = 0.00177903, Final residual = 0.000134739, No Iterations 4
time step continuity errors : sum local = 0.00574268, global = 0.00074254, cumulative = 0.555435
smoothSolver:  Solving for epsilon, Initial residual = 0.000195039, Final residual = 1.28158e-05, No Iterations 3
smoothSolver:  Solving for k, Initial residual = 0.000332873, Final residual = 2.0068e-05, No Iterations 4
ExecutionTime = 3.96201 s  ClockTime = 4 s

Time = 274s

smoothSolver:  Solving for Ux, Initial residual = 0.000191441, Final residual = 1.23623e-05, No Iterations 6
smoothSolver:  Solving for Uy, Initial residual = 0.00140257, Final residual = 9.27408e-05, No Iterations 6
GAMG:  Solving for p, Initial residual = 0.00174932, Final residual = 0.000138509, No Iterations 4
time step continuity errors : sum local = 0.00589759, global = 0.000732433, cumulative = 0.556168
smoothSolver:  Solving for epsilon, Initial residual = 0.000185557, Final residual = 1.22449e-05, No Iterations 3
smoothSolver:  Solving for k, Initial residual = 0.000320351, Final residual = 1.93453e-05, No Iterations 4
ExecutionTime = 3.97557 s  ClockTime = 4 s

Time = 275s

smoothSolver:  Solving for Ux, Initial residual = 0.000183871, Final residual = 1.17985e-05, No Iterations 6
smoothSolver:  Solving for Uy, Initial residual = 0.00133108, Final residual = 8.81423e-05, No Iterations 6
GAMG:  Solving for p, Initial residual = 0.0018372, Final residual = 0.000137434, No Iterations 4
time step continuity errors : sum local = 0.00585163, global = 0.000720462, cumulative = 0.556888
smoothSolver:  Solving for epsilon, Initial residual = 0.000179051, Final residual = 1.17172e-05, No Iterations 3
smoothSolver:  Solving for k, Initial residual = 0.000307803, Final residual = 1.857e-05, No Iterations 4
ExecutionTime = 3.98907 s  ClockTime = 4 s

Time = 276s

smoothSolver:  Solving for Ux, Initial residual = 0.000176533, Final residual = 1.75677e-05, No Iterations 5
smoothSolver:  Solving for Uy, Initial residual = 0.00131936, Final residual = 0.000131295, No Iterations 5
GAMG:  Solving for p, Initial residual = 0.00166853, Final residual = 0.000139913, No Iterations 4
time step continuity errors : sum local = 0.00595134, global = 0.000759807, cumulative = 0.557648
smoothSolver:  Solving for epsilon, Initial residual = 0.000173468, Final residual = 1.12307e-05, No Iterations 3
smoothSolver:  Solving for k, Initial residual = 0.000296226, Final residual = 1.79444e-05, No Iterations 4
ExecutionTime = 4.00225 s  ClockTime = 4 s

Time = 277s

smoothSolver:  Solving for Ux, Initial residual = 0.000169162, Final residual = 1.67829e-05, No Iterations 5
smoothSolver:  Solving for Uy, Initial residual = 0.00123103, Final residual = 8.40343e-05, No Iterations 6
GAMG:  Solving for p, Initial residual = 0.00165327, Final residual = 0.000134816, No Iterations 4
time step continuity errors : sum local = 0.00573445, global = 0.00066543, cumulative = 0.558313
smoothSolver:  Solving for epsilon, Initial residual = 0.000168909, Final residual = 1.08227e-05, No Iterations 3
smoothSolver:  Solving for k, Initial residual = 0.000285795, Final residual = 1.73395e-05, No Iterations 4
ExecutionTime = 4.01553 s  ClockTime = 4 s

Time = 278s

smoothSolver:  Solving for Ux, Initial residual = 0.000163278, Final residual = 1.60772e-05, No Iterations 5
smoothSolver:  Solving for Uy, Initial residual = 0.00120001, Final residual = 8.12348e-05, No Iterations 6
GAMG:  Solving for p, Initial residual = 0.00204983, Final residual = 0.000177736, No Iterations 3
time step continuity errors : sum local = 0.00756278, global = -0.00059224, cumulative = 0.557721
smoothSolver:  Solving for epsilon, Initial residual = 0.000165073, Final residual = 1.04088e-05, No Iterations 3
smoothSolver:  Solving for k, Initial residual = 0.000275682, Final residual = 1.66893e-05, No Iterations 4
ExecutionTime = 4.02879 s  ClockTime = 4 s

Time = 279s

smoothSolver:  Solving for Ux, Initial residual = 0.000157291, Final residual = 1.54242e-05, No Iterations 5
smoothSolver:  Solving for Uy, Initial residual = 0.00116222, Final residual = 7.96587e-05, No Iterations 6
GAMG:  Solving for p, Initial residual = 0.00152125, Final residual = 0.000104605, No Iterations 5
time step continuity errors : sum local = 0.00444392, global = -0.000324808, cumulative = 0.557396
smoothSolver:  Solving for epsilon, Initial residual = 0.000160108, Final residual = 1.00349e-05, No Iterations 3
smoothSolver:  Solving for k, Initial residual = 0.000265002, Final residual = 1.61079e-05, No Iterations 4
ExecutionTime = 4.04298 s  ClockTime = 4 s

Time = 280s

smoothSolver:  Solving for Ux, Initial residual = 0.000149706, Final residual = 1.4611e-05, No Iterations 5
smoothSolver:  Solving for Uy, Initial residual = 0.00113741, Final residual = 7.78446e-05, No Iterations 6
GAMG:  Solving for p, Initial residual = 0.00179993, Final residual = 0.000166592, No Iterations 3
time step continuity errors : sum local = 0.00707404, global = -0.000543289, cumulative = 0.556853
smoothSolver:  Solving for epsilon, Initial residual = 0.000152687, Final residual = 9.68442e-06, No Iterations 3
smoothSolver:  Solving for k, Initial residual = 0.000255878, Final residual = 1.55984e-05, No Iterations 4
ExecutionTime = 4.05594 s  ClockTime = 4 s

Time = 281s

smoothSolver:  Solving for Ux, Initial residual = 0.000143389, Final residual = 1.40746e-05, No Iterations 5
smoothSolver:  Solving for Uy, Initial residual = 0.00110538, Final residual = 7.58812e-05, No Iterations 6
GAMG:  Solving for p, Initial residual = 0.00144247, Final residual = 0.000142166, No Iterations 4
time step continuity errors : sum local = 0.00603451, global = 0.000722343, cumulative = 0.557575
smoothSolver:  Solving for epsilon, Initial residual = 0.00014791, Final residual = 9.41777e-06, No Iterations 3
smoothSolver:  Solving for k, Initial residual = 0.000246672, Final residual = 1.50474e-05, No Iterations 4
ExecutionTime = 4.06915 s  ClockTime = 4 s

Time = 282s

smoothSolver:  Solving for Ux, Initial residual = 0.000136764, Final residual = 1.34163e-05, No Iterations 5
smoothSolver:  Solving for Uy, Initial residual = 0.00107879, Final residual = 7.39945e-05, No Iterations 6
GAMG:  Solving for p, Initial residual = 0.00127192, Final residual = 8.83084e-05, No Iterations 5
time step continuity errors : sum local = 0.00374523, global = -0.000271084, cumulative = 0.557304
smoothSolver:  Solving for epsilon, Initial residual = 0.000146064, Final residual = 9.22558e-06, No Iterations 3
smoothSolver:  Solving for k, Initial residual = 0.000239523, Final residual = 1.46276e-05, No Iterations 4
ExecutionTime = 4.08314 s  ClockTime = 4 s

Time = 283s

smoothSolver:  Solving for Ux, Initial residual = 0.000132163, Final residual = 1.29232e-05, No Iterations 5
smoothSolver:  Solving for Uy, Initial residual = 0.00108586, Final residual = 7.20684e-05, No Iterations 6
GAMG:  Solving for p, Initial residual = 0.00156359, Final residual = 0.000143814, No Iterations 3
time step continuity errors : sum local = 0.00609788, global = -0.000523682, cumulative = 0.556781
smoothSolver:  Solving for epsilon, Initial residual = 0.000142769, Final residual = 9.0675e-06, No Iterations 3
smoothSolver:  Solving for k, Initial residual = 0.000232675, Final residual = 1.42623e-05, No Iterations 4
ExecutionTime = 4.09586 s  ClockTime = 4 s

Time = 284s

smoothSolver:  Solving for Ux, Initial residual = 0.000127676, Final residual = 1.26058e-05, No Iterations 5
smoothSolver:  Solving for Uy, Initial residual = 0.0010319, Final residual = 6.981e-05, No Iterations 6
GAMG:  Solving for p, Initial residual = 0.00131556, Final residual = 0.00012283, No Iterations 4
time step continuity errors : sum local = 0.00520864, global = 0.000614958, cumulative = 0.557396
smoothSolver:  Solving for epsilon, Initial residual = 0.00014159, Final residual = 8.97856e-06, No Iterations 3
smoothSolver:  Solving for k, Initial residual = 0.000227002, Final residual = 1.38911e-05, No Iterations 4
ExecutionTime = 4.10933 s  ClockTime = 4 s

Time = 285s

smoothSolver:  Solving for Ux, Initial residual = 0.000122524, Final residual = 1.21333e-05, No Iterations 5
smoothSolver:  Solving for Uy, Initial residual = 0.000992942, Final residual = 6.75593e-05, No Iterations 6
GAMG:  Solving for p, Initial residual = 0.00123295, Final residual = 0.000112114, No Iterations 4
time step continuity errors : sum local = 0.0047489, global = 0.000564888, cumulative = 0.55796
smoothSolver:  Solving for epsilon, Initial residual = 0.000139397, Final residual = 8.97324e-06, No Iterations 3
smoothSolver:  Solving for k, Initial residual = 0.000221974, Final residual = 1.35975e-05, No Iterations 4
ExecutionTime = 4.12287 s  ClockTime = 4 s


SIMPLE solution converged in 285 iterations

streamlines streamlines write:
    Seeded 10 particles
    Sampled 12040 locations

End

