/*---------------------------------------------------------------------------*\
  =========                 |
  \\      /  F ield         | OpenFOAM: The Open Source CFD Toolbox
   \\    /   O peration     | Website:  https://openfoam.org
    \\  /    A nd           | Version:  13
     \\/     M anipulation  |
\*---------------------------------------------------------------------------*/
Build  : 13-65eda17ad4ca
Exec   : foamRun
Date   : Oct 24 2025
Time   : 00:47:52
Host   : "LAPTOP-416UROR2"
PID    : 3131
I/O    : uncollated
Case   : /home/adisr/OpenFOAM-learning1/incompressibleFlow/01-cavity/meshChange/mesh20
nProcs : 1
sigFpe : Enabling floating point exception trapping (FOAM_SIGFPE).
fileModificationChecking : Monitoring run-time modified files using timeStampMaster (fileModificationSkew 10)
allowSystemOperations : Allowing user-supplied system call operations

// * * * * * * * * * * * * * * * * * * * * * * * * * * * * * * * * * * * * * //
Create time

Create mesh for time = 0

Selecting solver incompressibleFluid
Selecting viscosity model constant
Selecting turbulence model type RAS
    Selecting RAS turbulence model kEpsilon
No MRF models present

Courant Number mean: 0 max: 0

PIMPLE: No convergence criteria found


PIMPLE: Operating solver in transient mode with 1 outer corrector
PIMPLE: Operating solver in PISO mode



Starting time loop

Courant Number mean: 0 max: 0
Time = 0.005s

smoothSolver:  Solving for Ux, Initial residual = 1, Final residual = 1.1324e-06, No Iterations 5
smoothSolver:  Solving for Uy, Initial residual = 1, Final residual = 6.71435e-07, No Iterations 5
GAMG:  Solving for p, Initial residual = 1, Final residual = 0.0378382, No Iterations 2
time step continuity errors : sum local = 5.90272e-06, global = -4.09454e-21
GAMG:  Solving for p, Initial residual = 0.0371368, Final residual = 6.05335e-07, No Iterations 10
time step continuity errors : sum local = 2.15891e-10, global = -1.18002e-21, cumulative = -1.18002e-21
smoothSolver:  Solving for epsilon, Initial residual = 0.0321904, Final residual = 4.05268e-06, No Iterations 3
smoothSolver:  Solving for k, Initial residual = 1, Final residual = 9.18966e-07, No Iterations 5
ExecutionTime = 0.100584 s  ClockTime = 1 s

Courant Number mean: 0.000539844 max: 0.00667001
Time = 0.01s

smoothSolver:  Solving for Ux, Initial residual = 0.325089, Final residual = 3.0405e-06, No Iterations 4
smoothSolver:  Solving for Uy, Initial residual = 0.267528, Final residual = 2.20437e-06, No Iterations 4
GAMG:  Solving for p, Initial residual = 0.142047, Final residual = 0.0132983, No Iterations 1
time step continuity errors : sum local = 4.33479e-06, global = 9.92617e-22
GAMG:  Solving for p, Initial residual = 0.0132778, Final residual = 8.78146e-07, No Iterations 7
time step continuity errors : sum local = 3.90324e-10, global = 9.15521e-21, cumulative = 7.97518e-21
smoothSolver:  Solving for epsilon, Initial residual = 0.0334225, Final residual = 4.16591e-06, No Iterations 3
smoothSolver:  Solving for k, Initial residual = 0.85477, Final residual = 6.99294e-07, No Iterations 5
ExecutionTime = 0.10216 s  ClockTime = 1 s

Courant Number mean: 0.00102638 max: 0.0117841
Time = 0.015s

smoothSolver:  Solving for Ux, Initial residual = 0.185328, Final residual = 1.70431e-06, No Iterations 4
smoothSolver:  Solving for Uy, Initial residual = 0.162837, Final residual = 1.48734e-06, No Iterations 4
GAMG:  Solving for p, Initial residual = 0.0520227, Final residual = 0.00513665, No Iterations 1
time step continuity errors : sum local = 1.82093e-06, global = -3.51552e-21
GAMG:  Solving for p, Initial residual = 0.00544795, Final residual = 7.982e-07, No Iterations 8
time step continuity errors : sum local = 3.23926e-10, global = 6.94444e-21, cumulative = 1.49196e-20
smoothSolver:  Solving for epsilon, Initial residual = 0.0331743, Final residual = 4.1345e-06, No Iterations 3
smoothSolver:  Solving for k, Initial residual = 0.746806, Final residual = 9.77102e-06, No Iterations 4
ExecutionTime = 0.104313 s  ClockTime = 1 s

Courant Number mean: 0.00149203 max: 0.0163221
Time = 0.02s

smoothSolver:  Solving for Ux, Initial residual = 0.130339, Final residual = 1.20641e-06, No Iterations 4
smoothSolver:  Solving for Uy, Initial residual = 0.117084, Final residual = 1.10185e-06, No Iterations 4
GAMG:  Solving for p, Initial residual = 0.0323269, Final residual = 0.00159224, No Iterations 2
time step continuity errors : sum local = 5.99839e-07, global = -4.85969e-21
GAMG:  Solving for p, Initial residual = 0.00200209, Final residual = 8.95953e-07, No Iterations 7
time step continuity errors : sum local = 3.62948e-10, global = -5.24872e-21, cumulative = 9.6709e-21
smoothSolver:  Solving for epsilon, Initial residual = 0.0329319, Final residual = 4.10095e-06, No Iterations 3
smoothSolver:  Solving for k, Initial residual = 0.663653, Final residual = 8.6447e-06, No Iterations 4
ExecutionTime = 0.105906 s  ClockTime = 1 s

Courant Number mean: 0.00194851 max: 0.0207208
Time = 0.025s

smoothSolver:  Solving for Ux, Initial residual = 0.10081, Final residual = 9.41869e-07, No Iterations 4
smoothSolver:  Solving for Uy, Initial residual = 0.091742, Final residual = 8.7173e-07, No Iterations 4
GAMG:  Solving for p, Initial residual = 0.0239596, Final residual = 0.000848909, No Iterations 2
time step continuity errors : sum local = 3.36902e-07, global = -1.93353e-21
GAMG:  Solving for p, Initial residual = 0.0010853, Final residual = 5.21105e-07, No Iterations 7
time step continuity errors : sum local = 2.48677e-10, global = 4.6348e-21, cumulative = 1.43057e-20
smoothSolver:  Solving for epsilon, Initial residual = 0.0327085, Final residual = 4.06471e-06, No Iterations 3
smoothSolver:  Solving for k, Initial residual = 0.597462, Final residual = 7.75102e-06, No Iterations 4
ExecutionTime = 0.107755 s  ClockTime = 1 s

Courant Number mean: 0.00239281 max: 0.0249071
Time = 0.03s

smoothSolver:  Solving for Ux, Initial residual = 0.0818057, Final residual = 7.683e-07, No Iterations 4
smoothSolver:  Solving for Uy, Initial residual = 0.0757797, Final residual = 7.35296e-07, No Iterations 4
GAMG:  Solving for p, Initial residual = 0.0193452, Final residual = 0.000675956, No Iterations 2
time step continuity errors : sum local = 2.79699e-07, global = -1.02984e-20
GAMG:  Solving for p, Initial residual = 0.000892665, Final residual = 8.61174e-07, No Iterations 6
time step continuity errors : sum local = 4.34444e-10, global = -2.25071e-20, cumulative = -8.20137e-21
smoothSolver:  Solving for epsilon, Initial residual = 0.0324728, Final residual = 4.02626e-06, No Iterations 3
smoothSolver:  Solving for k, Initial residual = 0.543399, Final residual = 7.02379e-06, No Iterations 4
ExecutionTime = 0.109195 s  ClockTime = 1 s

Courant Number mean: 0.00282538 max: 0.0289023
Time = 0.035s

smoothSolver:  Solving for Ux, Initial residual = 0.068889, Final residual = 6.49867e-07, No Iterations 4
smoothSolver:  Solving for Uy, Initial residual = 0.0646255, Final residual = 6.40028e-07, No Iterations 4
GAMG:  Solving for p, Initial residual = 0.017186, Final residual = 0.000577928, No Iterations 2
time step continuity errors : sum local = 2.4756e-07, global = 1.74225e-20
GAMG:  Solving for p, Initial residual = 0.00080229, Final residual = 7.10455e-07, No Iterations 6
time step continuity errors : sum local = 3.73256e-10, global = 1.22759e-20, cumulative = 4.07451e-21
smoothSolver:  Solving for epsilon, Initial residual = 0.0322085, Final residual = 3.98494e-06, No Iterations 3
smoothSolver:  Solving for k, Initial residual = 0.498098, Final residual = 6.41309e-06, No Iterations 4
ExecutionTime = 0.110594 s  ClockTime = 1 s

Courant Number mean: 0.00324672 max: 0.032713
Time = 0.04s

smoothSolver:  Solving for Ux, Initial residual = 0.0594495, Final residual = 9.18685e-06, No Iterations 3
smoothSolver:  Solving for Uy, Initial residual = 0.056232, Final residual = 9.25777e-06, No Iterations 3
GAMG:  Solving for p, Initial residual = 0.0176052, Final residual = 0.000504339, No Iterations 2
time step continuity errors : sum local = 2.22148e-07, global = 4.64772e-21
GAMG:  Solving for p, Initial residual = 0.000750521, Final residual = 6.42738e-07, No Iterations 6
time step continuity errors : sum local = 3.47812e-10, global = 4.76146e-21, cumulative = 8.83597e-21
smoothSolver:  Solving for epsilon, Initial residual = 0.0319193, Final residual = 3.93994e-06, No Iterations 3
smoothSolver:  Solving for k, Initial residual = 0.459132, Final residual = 5.88869e-06, No Iterations 4
ExecutionTime = 0.112052 s  ClockTime = 1 s

Courant Number mean: 0.00365813 max: 0.0363464
Time = 0.045s

smoothSolver:  Solving for Ux, Initial residual = 0.0522492, Final residual = 8.11732e-06, No Iterations 3
smoothSolver:  Solving for Uy, Initial residual = 0.0496792, Final residual = 8.3374e-06, No Iterations 3
GAMG:  Solving for p, Initial residual = 0.0115168, Final residual = 0.00105675, No Iterations 1
time step continuity errors : sum local = 4.70637e-07, global = -8.83015e-21
GAMG:  Solving for p, Initial residual = 0.00115296, Final residual = 7.15378e-07, No Iterations 7
time step continuity errors : sum local = 3.68515e-10, global = -8.07018e-21, cumulative = 7.65788e-22
smoothSolver:  Solving for epsilon, Initial residual = 0.0316174, Final residual = 3.89608e-06, No Iterations 3
smoothSolver:  Solving for k, Initial residual = 0.412718, Final residual = 5.27765e-06, No Iterations 4
ExecutionTime = 0.113545 s  ClockTime = 1 s

Courant Number mean: 0.00406502 max: 0.0398095
Time = 0.05s

smoothSolver:  Solving for Ux, Initial residual = 0.0464803, Final residual = 7.26973e-06, No Iterations 3
smoothSolver:  Solving for Uy, Initial residual = 0.0443522, Final residual = 7.61452e-06, No Iterations 3
GAMG:  Solving for p, Initial residual = 0.0135767, Final residual = 0.000233742, No Iterations 2
time step continuity errors : sum local = 1.05911e-07, global = -1.012e-20
GAMG:  Solving for p, Initial residual = 0.000441307, Final residual = 9.59471e-07, No Iterations 5
time step continuity errors : sum local = 5.08297e-10, global = 2.76252e-20, cumulative = 2.8391e-20
smoothSolver:  Solving for epsilon, Initial residual = 0.0313255, Final residual = 3.85254e-06, No Iterations 3
smoothSolver:  Solving for k, Initial residual = 0.363426, Final residual = 4.63307e-06, No Iterations 4
ExecutionTime = 0.114886 s  ClockTime = 1 s

Courant Number mean: 0.00446552 max: 0.0431092
Time = 0.055s

smoothSolver:  Solving for Ux, Initial residual = 0.0418225, Final residual = 6.60635e-06, No Iterations 3
smoothSolver:  Solving for Uy, Initial residual = 0.0398575, Final residual = 7.04389e-06, No Iterations 3
GAMG:  Solving for p, Initial residual = 0.0145901, Final residual = 0.00143289, No Iterations 1
time step continuity errors : sum local = 6.42346e-07, global = -9.5436e-21
GAMG:  Solving for p, Initial residual = 0.00150554, Final residual = 4.64317e-07, No Iterations 7
time step continuity errors : sum local = 2.42393e-10, global = -1.25163e-20, cumulative = 1.58748e-20
smoothSolver:  Solving for epsilon, Initial residual = 0.0310176, Final residual = 3.80611e-06, No Iterations 3
smoothSolver:  Solving for k, Initial residual = 0.322324, Final residual = 4.09738e-06, No Iterations 4
ExecutionTime = 0.116194 s  ClockTime = 1 s

Courant Number mean: 0.00486565 max: 0.046241
Time = 0.06s

smoothSolver:  Solving for Ux, Initial residual = 0.0379274, Final residual = 6.06255e-06, No Iterations 3
smoothSolver:  Solving for Uy, Initial residual = 0.0360347, Final residual = 6.60182e-06, No Iterations 3
GAMG:  Solving for p, Initial residual = 0.0144687, Final residual = 0.00133923, No Iterations 1
time step continuity errors : sum local = 5.99779e-07, global = -2.53531e-20
GAMG:  Solving for p, Initial residual = 0.00145217, Final residual = 5.7848e-07, No Iterations 7
time step continuity errors : sum local = 2.98504e-10, global = -3.27098e-20, cumulative = -1.68351e-20
smoothSolver:  Solving for epsilon, Initial residual = 0.0306879, Final residual = 3.75863e-06, No Iterations 3
smoothSolver:  Solving for k, Initial residual = 0.289041, Final residual = 3.66448e-06, No Iterations 4
ExecutionTime = 0.11751 s  ClockTime = 1 s

Courant Number mean: 0.00525876 max: 0.0491894
Time = 0.065s

smoothSolver:  Solving for Ux, Initial residual = 0.0346581, Final residual = 5.58882e-06, No Iterations 3
smoothSolver:  Solving for Uy, Initial residual = 0.0330267, Final residual = 6.15123e-06, No Iterations 3
GAMG:  Solving for p, Initial residual = 0.0152699, Final residual = 0.000244358, No Iterations 2
time step continuity errors : sum local = 1.11223e-07, global = -5.35393e-20
GAMG:  Solving for p, Initial residual = 0.000518129, Final residual = 5.58001e-07, No Iterations 6
time step continuity errors : sum local = 2.91845e-10, global = -2.73487e-21, cumulative = -1.95699e-20
smoothSolver:  Solving for epsilon, Initial residual = 0.030353, Final residual = 3.71141e-06, No Iterations 3
smoothSolver:  Solving for k, Initial residual = 0.261537, Final residual = 3.30696e-06, No Iterations 4
ExecutionTime = 0.118885 s  ClockTime = 1 s

Courant Number mean: 0.00564546 max: 0.0519834
Time = 0.07s

smoothSolver:  Solving for Ux, Initial residual = 0.031912, Final residual = 5.1864e-06, No Iterations 3
smoothSolver:  Solving for Uy, Initial residual = 0.030479, Final residual = 5.75114e-06, No Iterations 3
GAMG:  Solving for p, Initial residual = 0.0137879, Final residual = 0.000336057, No Iterations 2
time step continuity errors : sum local = 1.51015e-07, global = 2.2732e-20
GAMG:  Solving for p, Initial residual = 0.000583752, Final residual = 4.6192e-07, No Iterations 7
time step continuity errors : sum local = 2.35831e-10, global = 4.96308e-22, cumulative = -1.90736e-20
smoothSolver:  Solving for epsilon, Initial residual = 0.0300068, Final residual = 3.66266e-06, No Iterations 3
smoothSolver:  Solving for k, Initial residual = 0.237867, Final residual = 3.00063e-06, No Iterations 4
ExecutionTime = 0.120169 s  ClockTime = 1 s

Courant Number mean: 0.00602599 max: 0.0546297
Time = 0.075s

smoothSolver:  Solving for Ux, Initial residual = 0.0294933, Final residual = 4.82979e-06, No Iterations 3
smoothSolver:  Solving for Uy, Initial residual = 0.0284005, Final residual = 5.41006e-06, No Iterations 3
GAMG:  Solving for p, Initial residual = 0.014137, Final residual = 0.00030277, No Iterations 2
time step continuity errors : sum local = 1.33714e-07, global = -9.24891e-21
GAMG:  Solving for p, Initial residual = 0.000561594, Final residual = 9.67628e-07, No Iterations 6
time step continuity errors : sum local = 4.87429e-10, global = 3.9105e-20, cumulative = 2.00313e-20
smoothSolver:  Solving for epsilon, Initial residual = 0.0296168, Final residual = 3.61003e-06, No Iterations 3
smoothSolver:  Solving for k, Initial residual = 0.217557, Final residual = 2.73964e-06, No Iterations 4
ExecutionTime = 0.121517 s  ClockTime = 1 s

Courant Number mean: 0.0063996 max: 0.0571351
Time = 0.08s

smoothSolver:  Solving for Ux, Initial residual = 0.0274325, Final residual = 4.52253e-06, No Iterations 3
smoothSolver:  Solving for Uy, Initial residual = 0.0265929, Final residual = 5.1044e-06, No Iterations 3
GAMG:  Solving for p, Initial residual = 0.0154922, Final residual = 0.000262836, No Iterations 2
time step continuity errors : sum local = 1.16026e-07, global = 5.35341e-20
GAMG:  Solving for p, Initial residual = 0.000565022, Final residual = 5.45467e-07, No Iterations 6
time step continuity errors : sum local = 2.78479e-10, global = -3.21101e-20, cumulative = -1.20788e-20
smoothSolver:  Solving for epsilon, Initial residual = 0.0291869, Final residual = 3.55191e-06, No Iterations 3
smoothSolver:  Solving for k, Initial residual = 0.200117, Final residual = 2.5148e-06, No Iterations 4
ExecutionTime = 0.12318 s  ClockTime = 1 s

Courant Number mean: 0.0067669 max: 0.059503
Time = 0.085s

smoothSolver:  Solving for Ux, Initial residual = 0.025669, Final residual = 4.23971e-06, No Iterations 3
smoothSolver:  Solving for Uy, Initial residual = 0.0248929, Final residual = 4.8172e-06, No Iterations 3
GAMG:  Solving for p, Initial residual = 0.014555, Final residual = 0.000261684, No Iterations 2
time step continuity errors : sum local = 1.15902e-07, global = -1.75621e-20
GAMG:  Solving for p, Initial residual = 0.000546829, Final residual = 7.75977e-07, No Iterations 6
time step continuity errors : sum local = 3.91337e-10, global = -5.2893e-20, cumulative = -6.49718e-20
smoothSolver:  Solving for epsilon, Initial residual = 0.0287525, Final residual = 3.49359e-06, No Iterations 3
smoothSolver:  Solving for k, Initial residual = 0.184998, Final residual = 2.31947e-06, No Iterations 4
ExecutionTime = 0.124994 s  ClockTime = 1 s

Courant Number mean: 0.00712768 max: 0.0617374
Time = 0.09s

smoothSolver:  Solving for Ux, Initial residual = 0.024087, Final residual = 4.00133e-06, No Iterations 3
smoothSolver:  Solving for Uy, Initial residual = 0.023424, Final residual = 4.56568e-06, No Iterations 3
GAMG:  Solving for p, Initial residual = 0.0147142, Final residual = 0.000261643, No Iterations 2
time step continuity errors : sum local = 1.15122e-07, global = 8.46309e-21
GAMG:  Solving for p, Initial residual = 0.000578, Final residual = 7.71554e-07, No Iterations 6
time step continuity errors : sum local = 3.88173e-10, global = 1.70606e-22, cumulative = -6.48012e-20
smoothSolver:  Solving for epsilon, Initial residual = 0.0283195, Final residual = 3.43629e-06, No Iterations 3
smoothSolver:  Solving for k, Initial residual = 0.171777, Final residual = 2.14918e-06, No Iterations 4
ExecutionTime = 0.126193 s  ClockTime = 1 s

Courant Number mean: 0.00748339 max: 0.0638423
Time = 0.095s

smoothSolver:  Solving for Ux, Initial residual = 0.0227032, Final residual = 3.78957e-06, No Iterations 3
smoothSolver:  Solving for Uy, Initial residual = 0.0221055, Final residual = 4.34002e-06, No Iterations 3
GAMG:  Solving for p, Initial residual = 0.0146487, Final residual = 0.00027397, No Iterations 2
time step continuity errors : sum local = 1.20343e-07, global = -8.42723e-21
GAMG:  Solving for p, Initial residual = 0.000588496, Final residual = 7.17252e-07, No Iterations 6
time step continuity errors : sum local = 3.61275e-10, global = -6.98399e-20, cumulative = -1.34641e-19
smoothSolver:  Solving for epsilon, Initial residual = 0.0278882, Final residual = 3.37832e-06, No Iterations 3
smoothSolver:  Solving for k, Initial residual = 0.160113, Final residual = 2.00038e-06, No Iterations 4
ExecutionTime = 0.127409 s  ClockTime = 1 s

Courant Number mean: 0.00783379 max: 0.0658238
Time = 0.1s

smoothSolver:  Solving for Ux, Initial residual = 0.0214843, Final residual = 3.60077e-06, No Iterations 3
smoothSolver:  Solving for Uy, Initial residual = 0.020929, Final residual = 4.13839e-06, No Iterations 3
GAMG:  Solving for p, Initial residual = 0.0143609, Final residual = 0.00027878, No Iterations 2
time step continuity errors : sum local = 1.22132e-07, global = -1.89318e-20
GAMG:  Solving for p, Initial residual = 0.000606158, Final residual = 7.77678e-07, No Iterations 6
time step continuity errors : sum local = 3.89794e-10, global = -4.52261e-20, cumulative = -1.79867e-19
smoothSolver:  Solving for epsilon, Initial residual = 0.0274627, Final residual = 3.31925e-06, No Iterations 3
smoothSolver:  Solving for k, Initial residual = 0.149746, Final residual = 1.86305e-06, No Iterations 4
ExecutionTime = 0.129102 s  ClockTime = 1 s

Courant Number mean: 0.00817846 max: 0.06769
Time = 0.105s

smoothSolver:  Solving for Ux, Initial residual = 0.0203735, Final residual = 3.42923e-06, No Iterations 3
smoothSolver:  Solving for Uy, Initial residual = 0.0198646, Final residual = 3.95441e-06, No Iterations 3
GAMG:  Solving for p, Initial residual = 0.0143975, Final residual = 0.00028526, No Iterations 2
time step continuity errors : sum local = 1.24794e-07, global = 2.15791e-20
GAMG:  Solving for p, Initial residual = 0.000622973, Final residual = 7.92864e-07, No Iterations 6
time step continuity errors : sum local = 3.96476e-10, global = -4.16692e-21, cumulative = -1.84034e-19
smoothSolver:  Solving for epsilon, Initial residual = 0.0270362, Final residual = 3.26303e-06, No Iterations 3
smoothSolver:  Solving for k, Initial residual = 0.14048, Final residual = 1.74548e-06, No Iterations 4
ExecutionTime = 0.130275 s  ClockTime = 1 s

Courant Number mean: 0.0085176 max: 0.0694488
Time = 0.11s

smoothSolver:  Solving for Ux, Initial residual = 0.0194311, Final residual = 3.22451e-06, No Iterations 3
smoothSolver:  Solving for Uy, Initial residual = 0.018904, Final residual = 3.65761e-06, No Iterations 3
GAMG:  Solving for p, Initial residual = 0.0199942, Final residual = 0.000450932, No Iterations 2
time step continuity errors : sum local = 1.95651e-07, global = -4.81678e-20
GAMG:  Solving for p, Initial residual = 0.000892639, Final residual = 5.59713e-07, No Iterations 7
time step continuity errors : sum local = 2.78924e-10, global = 4.29514e-20, cumulative = -1.41083e-19
smoothSolver:  Solving for epsilon, Initial residual = 0.0266109, Final residual = 3.20635e-06, No Iterations 3
smoothSolver:  Solving for k, Initial residual = 0.132145, Final residual = 1.63819e-06, No Iterations 4
ExecutionTime = 0.131453 s  ClockTime = 1 s

Courant Number mean: 0.00885111 max: 0.0710655
Time = 0.115s

smoothSolver:  Solving for Ux, Initial residual = 0.0185219, Final residual = 3.0868e-06, No Iterations 3
smoothSolver:  Solving for Uy, Initial residual = 0.0180329, Final residual = 3.50829e-06, No Iterations 3
GAMG:  Solving for p, Initial residual = 0.0144493, Final residual = 0.000292164, No Iterations 2
time step continuity errors : sum local = 1.27365e-07, global = -1.2397e-20
GAMG:  Solving for p, Initial residual = 0.000650918, Final residual = 7.25995e-07, No Iterations 6
time step continuity errors : sum local = 3.63692e-10, global = -3.62564e-20, cumulative = -1.77339e-19
smoothSolver:  Solving for epsilon, Initial residual = 0.0261929, Final residual = 3.15017e-06, No Iterations 3
smoothSolver:  Solving for k, Initial residual = 0.124615, Final residual = 1.54245e-06, No Iterations 4
ExecutionTime = 0.132667 s  ClockTime = 1 s

Courant Number mean: 0.00917947 max: 0.0725911
Time = 0.12s

smoothSolver:  Solving for Ux, Initial residual = 0.017686, Final residual = 2.95441e-06, No Iterations 3
smoothSolver:  Solving for Uy, Initial residual = 0.0172427, Final residual = 3.37305e-06, No Iterations 3
GAMG:  Solving for p, Initial residual = 0.0145345, Final residual = 0.000290001, No Iterations 2
time step continuity errors : sum local = 1.26165e-07, global = -9.55394e-21
GAMG:  Solving for p, Initial residual = 0.000664821, Final residual = 7.40746e-07, No Iterations 6
time step continuity errors : sum local = 3.71029e-10, global = 3.71714e-20, cumulative = -1.40168e-19
smoothSolver:  Solving for epsilon, Initial residual = 0.0257826, Final residual = 3.096e-06, No Iterations 3
smoothSolver:  Solving for k, Initial residual = 0.117781, Final residual = 1.45575e-06, No Iterations 4
ExecutionTime = 0.133782 s  ClockTime = 1 s

Courant Number mean: 0.00950361 max: 0.0740425
Time = 0.125s

smoothSolver:  Solving for Ux, Initial residual = 0.016913, Final residual = 2.83328e-06, No Iterations 3
smoothSolver:  Solving for Uy, Initial residual = 0.0166725, Final residual = 3.25083e-06, No Iterations 3
GAMG:  Solving for p, Initial residual = 0.0163204, Final residual = 0.000475797, No Iterations 2
time step continuity errors : sum local = 2.05713e-07, global = -1.46825e-20
GAMG:  Solving for p, Initial residual = 0.000819963, Final residual = 4.5737e-07, No Iterations 7
time step continuity errors : sum local = 2.29526e-10, global = -4.17209e-21, cumulative = -1.4434e-19
smoothSolver:  Solving for epsilon, Initial residual = 0.0253925, Final residual = 3.04303e-06, No Iterations 3
smoothSolver:  Solving for k, Initial residual = 0.111557, Final residual = 1.37307e-06, No Iterations 4
ExecutionTime = 0.134981 s  ClockTime = 1 s

Courant Number mean: 0.0098243 max: 0.0755674
Time = 0.13s

smoothSolver:  Solving for Ux, Initial residual = 0.0161709, Final residual = 2.71724e-06, No Iterations 3
smoothSolver:  Solving for Uy, Initial residual = 0.0163037, Final residual = 3.18801e-06, No Iterations 3
GAMG:  Solving for p, Initial residual = 0.0144865, Final residual = 0.000346983, No Iterations 2
time step continuity errors : sum local = 1.49359e-07, global = 1.33431e-20
GAMG:  Solving for p, Initial residual = 0.000701264, Final residual = 8.82853e-07, No Iterations 6
time step continuity errors : sum local = 4.36755e-10, global = -1.92164e-20, cumulative = -1.63556e-19
smoothSolver:  Solving for epsilon, Initial residual = 0.0249937, Final residual = 2.9889e-06, No Iterations 3
smoothSolver:  Solving for k, Initial residual = 0.105863, Final residual = 1.30055e-06, No Iterations 4
ExecutionTime = 0.136092 s  ClockTime = 1 s

Courant Number mean: 0.0101461 max: 0.0775534
Time = 0.135s

smoothSolver:  Solving for Ux, Initial residual = 0.0155076, Final residual = 2.61945e-06, No Iterations 3
smoothSolver:  Solving for Uy, Initial residual = 0.0158543, Final residual = 3.11282e-06, No Iterations 3
GAMG:  Solving for p, Initial residual = 0.0149189, Final residual = 0.000326611, No Iterations 2
time step continuity errors : sum local = 1.41893e-07, global = -1.04638e-20
GAMG:  Solving for p, Initial residual = 0.000652856, Final residual = 8.80665e-07, No Iterations 6
time step continuity errors : sum local = 4.4057e-10, global = 3.71301e-20, cumulative = -1.26426e-19
smoothSolver:  Solving for epsilon, Initial residual = 0.0245996, Final residual = 2.93614e-06, No Iterations 3
smoothSolver:  Solving for k, Initial residual = 0.100638, Final residual = 1.23497e-06, No Iterations 4
ExecutionTime = 0.137207 s  ClockTime = 1 s

Courant Number mean: 0.0104661 max: 0.0794793
Time = 0.14s

smoothSolver:  Solving for Ux, Initial residual = 0.0148946, Final residual = 2.5292e-06, No Iterations 3
smoothSolver:  Solving for Uy, Initial residual = 0.0154051, Final residual = 3.03794e-06, No Iterations 3
GAMG:  Solving for p, Initial residual = 0.0167386, Final residual = 0.00042295, No Iterations 2
time step continuity errors : sum local = 1.82899e-07, global = -3.39092e-20
GAMG:  Solving for p, Initial residual = 0.000794929, Final residual = 4.78171e-07, No Iterations 6
time step continuity errors : sum local = 2.47407e-10, global = 6.11493e-20, cumulative = -6.52768e-20
smoothSolver:  Solving for epsilon, Initial residual = 0.024214, Final residual = 2.88459e-06, No Iterations 3
smoothSolver:  Solving for k, Initial residual = 0.0958317, Final residual = 1.1744e-06, No Iterations 4
ExecutionTime = 0.138292 s  ClockTime = 1 s

Courant Number mean: 0.0107823 max: 0.0812843
Time = 0.145s

smoothSolver:  Solving for Ux, Initial residual = 0.0142962, Final residual = 2.43431e-06, No Iterations 3
smoothSolver:  Solving for Uy, Initial residual = 0.0150153, Final residual = 2.9643e-06, No Iterations 3
GAMG:  Solving for p, Initial residual = 0.0161936, Final residual = 0.00041193, No Iterations 2
time step continuity errors : sum local = 1.7844e-07, global = -3.5729e-20
GAMG:  Solving for p, Initial residual = 0.000755137, Final residual = 6.92838e-07, No Iterations 7
time step continuity errors : sum local = 3.3986e-10, global = -8.78362e-21, cumulative = -7.40605e-20
smoothSolver:  Solving for epsilon, Initial residual = 0.0238272, Final residual = 2.83133e-06, No Iterations 3
smoothSolver:  Solving for k, Initial residual = 0.0913956, Final residual = 1.11845e-06, No Iterations 4
ExecutionTime = 0.1395 s  ClockTime = 1 s

Courant Number mean: 0.0110938 max: 0.0830728
Time = 0.15s

smoothSolver:  Solving for Ux, Initial residual = 0.0137535, Final residual = 2.35138e-06, No Iterations 3
smoothSolver:  Solving for Uy, Initial residual = 0.0146521, Final residual = 2.89691e-06, No Iterations 3
GAMG:  Solving for p, Initial residual = 0.0136181, Final residual = 0.000274924, No Iterations 2
time step continuity errors : sum local = 1.19801e-07, global = -4.83332e-20
GAMG:  Solving for p, Initial residual = 0.000609868, Final residual = 7.41886e-07, No Iterations 6
time step continuity errors : sum local = 3.68655e-10, global = -8.07845e-20, cumulative = -1.54845e-19
smoothSolver:  Solving for epsilon, Initial residual = 0.0234605, Final residual = 2.77989e-06, No Iterations 3
smoothSolver:  Solving for k, Initial residual = 0.0872932, Final residual = 1.06911e-06, No Iterations 4
ExecutionTime = 0.14082 s  ClockTime = 1 s

Courant Number mean: 0.0114016 max: 0.0848285
Time = 0.155s

smoothSolver:  Solving for Ux, Initial residual = 0.0132526, Final residual = 2.27538e-06, No Iterations 3
smoothSolver:  Solving for Uy, Initial residual = 0.0142288, Final residual = 2.8288e-06, No Iterations 3
GAMG:  Solving for p, Initial residual = 0.0130127, Final residual = 0.000273808, No Iterations 2
time step continuity errors : sum local = 1.20158e-07, global = -5.04063e-20
GAMG:  Solving for p, Initial residual = 0.000588526, Final residual = 7.76751e-07, No Iterations 6
time step continuity errors : sum local = 3.87598e-10, global = 1.22547e-19, cumulative = -3.22982e-20
smoothSolver:  Solving for epsilon, Initial residual = 0.0231111, Final residual = 2.72896e-06, No Iterations 3
smoothSolver:  Solving for k, Initial residual = 0.0834898, Final residual = 1.024e-06, No Iterations 4
ExecutionTime = 0.141878 s  ClockTime = 1 s

Courant Number mean: 0.0117055 max: 0.0865525
Time = 0.16s

smoothSolver:  Solving for Ux, Initial residual = 0.012776, Final residual = 2.2044e-06, No Iterations 3
smoothSolver:  Solving for Uy, Initial residual = 0.013836, Final residual = 2.76622e-06, No Iterations 3
GAMG:  Solving for p, Initial residual = 0.0131635, Final residual = 0.000262239, No Iterations 2
time step continuity errors : sum local = 1.15864e-07, global = -1.45222e-19
GAMG:  Solving for p, Initial residual = 0.00057859, Final residual = 7.39736e-07, No Iterations 6
time step continuity errors : sum local = 3.71249e-10, global = -8.93148e-20, cumulative = -1.21613e-19
smoothSolver:  Solving for epsilon, Initial residual = 0.0227975, Final residual = 2.67846e-06, No Iterations 3
smoothSolver:  Solving for k, Initial residual = 0.0799759, Final residual = 9.78342e-07, No Iterations 4
ExecutionTime = 0.144567 s  ClockTime = 1 s

Courant Number mean: 0.0120057 max: 0.0882463
Time = 0.165s

smoothSolver:  Solving for Ux, Initial residual = 0.0123308, Final residual = 2.13914e-06, No Iterations 3
smoothSolver:  Solving for Uy, Initial residual = 0.0134599, Final residual = 2.70406e-06, No Iterations 3
GAMG:  Solving for p, Initial residual = 0.013335, Final residual = 0.000257862, No Iterations 2
time step continuity errors : sum local = 1.14744e-07, global = 1.5247e-19
GAMG:  Solving for p, Initial residual = 0.000569487, Final residual = 7.83783e-07, No Iterations 6
time step continuity errors : sum local = 3.94848e-10, global = 1.19248e-19, cumulative = -2.36457e-21
smoothSolver:  Solving for epsilon, Initial residual = 0.0224901, Final residual = 2.62959e-06, No Iterations 3
smoothSolver:  Solving for k, Initial residual = 0.0767068, Final residual = 9.37405e-07, No Iterations 4
ExecutionTime = 0.145657 s  ClockTime = 1 s

Courant Number mean: 0.0123022 max: 0.0899144
Time = 0.17s

smoothSolver:  Solving for Ux, Initial residual = 0.0119229, Final residual = 2.07539e-06, No Iterations 3
smoothSolver:  Solving for Uy, Initial residual = 0.013101, Final residual = 2.63712e-06, No Iterations 3
GAMG:  Solving for p, Initial residual = 0.0139741, Final residual = 0.00025904, No Iterations 2
time step continuity errors : sum local = 1.16109e-07, global = -9.06435e-20
GAMG:  Solving for p, Initial residual = 0.000566445, Final residual = 8.33607e-07, No Iterations 6
time step continuity errors : sum local = 4.2195e-10, global = 1.22733e-20, cumulative = 9.90872e-21
smoothSolver:  Solving for epsilon, Initial residual = 0.0221848, Final residual = 2.58004e-06, No Iterations 3
smoothSolver:  Solving for k, Initial residual = 0.073662, Final residual = 8.98877e-07, No Iterations 4
ExecutionTime = 0.146718 s  ClockTime = 1 s

Courant Number mean: 0.0125952 max: 0.0915627
Time = 0.175s

smoothSolver:  Solving for Ux, Initial residual = 0.011541, Final residual = 2.0153e-06, No Iterations 3
smoothSolver:  Solving for Uy, Initial residual = 0.0127444, Final residual = 2.56883e-06, No Iterations 3
GAMG:  Solving for p, Initial residual = 0.0147847, Final residual = 0.000268832, No Iterations 2
time step continuity errors : sum local = 1.2139e-07, global = -2.48878e-20
GAMG:  Solving for p, Initial residual = 0.000587618, Final residual = 7.96651e-07, No Iterations 6
time step continuity errors : sum local = 4.07484e-10, global = 8.98939e-20, cumulative = 9.98026e-20
smoothSolver:  Solving for epsilon, Initial residual = 0.0218819, Final residual = 2.53138e-06, No Iterations 3
smoothSolver:  Solving for k, Initial residual = 0.0708417, Final residual = 8.6314e-07, No Iterations 4
ExecutionTime = 0.147713 s  ClockTime = 1 s

Courant Number mean: 0.0128847 max: 0.0931961
Time = 0.18s

smoothSolver:  Solving for Ux, Initial residual = 0.0111851, Final residual = 1.9584e-06, No Iterations 3
smoothSolver:  Solving for Uy, Initial residual = 0.0123853, Final residual = 2.50044e-06, No Iterations 3
GAMG:  Solving for p, Initial residual = 0.0142916, Final residual = 0.000288889, No Iterations 2
time step continuity errors : sum local = 1.31691e-07, global = 5.39218e-20
GAMG:  Solving for p, Initial residual = 0.000562071, Final residual = 5.02591e-07, No Iterations 7
time step continuity errors : sum local = 2.58929e-10, global = 1.01629e-19, cumulative = 2.01432e-19
smoothSolver:  Solving for epsilon, Initial residual = 0.0215909, Final residual = 2.48566e-06, No Iterations 3
smoothSolver:  Solving for k, Initial residual = 0.0682652, Final residual = 8.29643e-07, No Iterations 4
ExecutionTime = 0.148736 s  ClockTime = 1 s

Courant Number mean: 0.0131719 max: 0.0948201
Time = 0.185s

smoothSolver:  Solving for Ux, Initial residual = 0.0108546, Final residual = 1.90314e-06, No Iterations 3
smoothSolver:  Solving for Uy, Initial residual = 0.012095, Final residual = 2.43993e-06, No Iterations 3
GAMG:  Solving for p, Initial residual = 0.0135587, Final residual = 0.000265739, No Iterations 2
time step continuity errors : sum local = 1.22729e-07, global = -4.70769e-20
GAMG:  Solving for p, Initial residual = 0.00053301, Final residual = 9.99743e-07, No Iterations 6
time step continuity errors : sum local = 5.21241e-10, global = -8.98732e-20, cumulative = 1.11559e-19
smoothSolver:  Solving for epsilon, Initial residual = 0.0212912, Final residual = 2.43815e-06, No Iterations 3
smoothSolver:  Solving for k, Initial residual = 0.065853, Final residual = 8.00043e-07, No Iterations 4
ExecutionTime = 0.149757 s  ClockTime = 1 s

Courant Number mean: 0.0134577 max: 0.0964364
Time = 0.19s

smoothSolver:  Solving for Ux, Initial residual = 0.010544, Final residual = 1.85102e-06, No Iterations 3
smoothSolver:  Solving for Uy, Initial residual = 0.011805, Final residual = 2.3802e-06, No Iterations 3
GAMG:  Solving for p, Initial residual = 0.0111941, Final residual = 0.000284031, No Iterations 2
time step continuity errors : sum local = 1.32688e-07, global = -3.38213e-20
GAMG:  Solving for p, Initial residual = 0.000639385, Final residual = 5.28987e-07, No Iterations 7
time step continuity errors : sum local = 2.79738e-10, global = -3.44831e-20, cumulative = 7.70758e-20
smoothSolver:  Solving for epsilon, Initial residual = 0.0209924, Final residual = 2.39152e-06, No Iterations 3
smoothSolver:  Solving for k, Initial residual = 0.0635718, Final residual = 7.70165e-07, No Iterations 4
ExecutionTime = 0.150768 s  ClockTime = 1 s

Courant Number mean: 0.01374 max: 0.0979704
Time = 0.195s

smoothSolver:  Solving for Ux, Initial residual = 0.0102477, Final residual = 1.80469e-06, No Iterations 3
smoothSolver:  Solving for Uy, Initial residual = 0.0115671, Final residual = 2.32781e-06, No Iterations 3
GAMG:  Solving for p, Initial residual = 0.0123751, Final residual = 0.000338835, No Iterations 2
time step continuity errors : sum local = 1.59227e-07, global = 6.30312e-20
GAMG:  Solving for p, Initial residual = 0.000645849, Final residual = 5.46484e-07, No Iterations 7
time step continuity errors : sum local = 2.9229e-10, global = -4.22793e-20, cumulative = 3.47965e-20
smoothSolver:  Solving for epsilon, Initial residual = 0.0206932, Final residual = 2.34241e-06, No Iterations 3
smoothSolver:  Solving for k, Initial residual = 0.0614148, Final residual = 7.40461e-07, No Iterations 4
ExecutionTime = 0.151744 s  ClockTime = 1 s

Courant Number mean: 0.0140189 max: 0.0994579
Time = 0.2s

smoothSolver:  Solving for Ux, Initial residual = 0.00995893, Final residual = 1.76015e-06, No Iterations 3
smoothSolver:  Solving for Uy, Initial residual = 0.0113526, Final residual = 2.27937e-06, No Iterations 3
GAMG:  Solving for p, Initial residual = 0.0115819, Final residual = 0.000262158, No Iterations 2
time step continuity errors : sum local = 1.24866e-07, global = 4.17313e-20
GAMG:  Solving for p, Initial residual = 0.000535153, Final residual = 6.12722e-07, No Iterations 6
time step continuity errors : sum local = 3.3043e-10, global = -3.30045e-20, cumulative = 1.79201e-21
smoothSolver:  Solving for epsilon, Initial residual = 0.0203964, Final residual = 2.2986e-06, No Iterations 3
smoothSolver:  Solving for k, Initial residual = 0.0593771, Final residual = 7.13974e-07, No Iterations 4
ExecutionTime = 0.152745 s  ClockTime = 1 s

Courant Number mean: 0.0142949 max: 0.100924
Time = 0.205s

smoothSolver:  Solving for Ux, Initial residual = 0.00971499, Final residual = 1.72483e-06, No Iterations 3
smoothSolver:  Solving for Uy, Initial residual = 0.0110545, Final residual = 2.22105e-06, No Iterations 3
GAMG:  Solving for p, Initial residual = 0.011224, Final residual = 0.0002841, No Iterations 2
time step continuity errors : sum local = 1.35587e-07, global = 2.77829e-20
GAMG:  Solving for p, Initial residual = 0.000549467, Final residual = 6.62534e-07, No Iterations 6
time step continuity errors : sum local = 3.57552e-10, global = 7.1851e-20, cumulative = 7.3643e-20
smoothSolver:  Solving for epsilon, Initial residual = 0.0201, Final residual = 2.2552e-06, No Iterations 3
smoothSolver:  Solving for k, Initial residual = 0.0574493, Final residual = 6.90024e-07, No Iterations 4
ExecutionTime = 0.153717 s  ClockTime = 1 s

Courant Number mean: 0.014571 max: 0.102357
Time = 0.21s

smoothSolver:  Solving for Ux, Initial residual = 0.00948267, Final residual = 1.69662e-06, No Iterations 3
smoothSolver:  Solving for Uy, Initial residual = 0.0107813, Final residual = 2.16905e-06, No Iterations 3
GAMG:  Solving for p, Initial residual = 0.0109046, Final residual = 0.000278087, No Iterations 2
time step continuity errors : sum local = 1.33283e-07, global = 4.88243e-20
GAMG:  Solving for p, Initial residual = 0.000548316, Final residual = 7.30211e-07, No Iterations 6
time step continuity errors : sum local = 3.96083e-10, global = 2.09483e-20, cumulative = 9.45913e-20
smoothSolver:  Solving for epsilon, Initial residual = 0.0198026, Final residual = 2.21218e-06, No Iterations 3
smoothSolver:  Solving for k, Initial residual = 0.0556224, Final residual = 6.67017e-07, No Iterations 4
ExecutionTime = 0.154733 s  ClockTime = 1 s

Courant Number mean: 0.014845 max: 0.103744
Time = 0.215s

smoothSolver:  Solving for Ux, Initial residual = 0.00924966, Final residual = 1.66241e-06, No Iterations 3
smoothSolver:  Solving for Uy, Initial residual = 0.010543, Final residual = 2.12212e-06, No Iterations 3
GAMG:  Solving for p, Initial residual = 0.0111693, Final residual = 0.000273919, No Iterations 2
time step continuity errors : sum local = 1.32261e-07, global = -1.24253e-19
GAMG:  Solving for p, Initial residual = 0.000538955, Final residual = 7.23848e-07, No Iterations 6
time step continuity errors : sum local = 3.95477e-10, global = -8.87151e-21, cumulative = 8.57198e-20
smoothSolver:  Solving for epsilon, Initial residual = 0.0195067, Final residual = 2.16828e-06, No Iterations 3
smoothSolver:  Solving for k, Initial residual = 0.0538888, Final residual = 6.44357e-07, No Iterations 4
ExecutionTime = 0.155777 s  ClockTime = 1 s

Courant Number mean: 0.0151158 max: 0.105091
Time = 0.22s

smoothSolver:  Solving for Ux, Initial residual = 0.00902287, Final residual = 1.6218e-06, No Iterations 3
smoothSolver:  Solving for Uy, Initial residual = 0.0103183, Final residual = 2.07989e-06, No Iterations 3
GAMG:  Solving for p, Initial residual = 0.0111959, Final residual = 0.000271725, No Iterations 2
time step continuity errors : sum local = 1.32299e-07, global = 9.31302e-20
GAMG:  Solving for p, Initial residual = 0.000543823, Final residual = 7.05537e-07, No Iterations 6
time step continuity errors : sum local = 3.89376e-10, global = 6.23591e-20, cumulative = 1.48079e-19
smoothSolver:  Solving for epsilon, Initial residual = 0.0192104, Final residual = 2.1256e-06, No Iterations 3
smoothSolver:  Solving for k, Initial residual = 0.0522388, Final residual = 9.91526e-06, No Iterations 3
ExecutionTime = 0.157053 s  ClockTime = 1 s

Courant Number mean: 0.0153875 max: 0.106401
Time = 0.225s

smoothSolver:  Solving for Ux, Initial residual = 0.00880521, Final residual = 1.58955e-06, No Iterations 3
smoothSolver:  Solving for Uy, Initial residual = 0.0101021, Final residual = 2.04194e-06, No Iterations 3
GAMG:  Solving for p, Initial residual = 0.0108904, Final residual = 0.000256783, No Iterations 2
time step continuity errors : sum local = 1.2608e-07, global = -5.97433e-20
GAMG:  Solving for p, Initial residual = 0.000537979, Final residual = 9.12556e-07, No Iterations 6
time step continuity errors : sum local = 5.03837e-10, global = -4.22172e-20, cumulative = 1.05862e-19
smoothSolver:  Solving for epsilon, Initial residual = 0.0189275, Final residual = 2.08517e-06, No Iterations 3
smoothSolver:  Solving for k, Initial residual = 0.0506611, Final residual = 9.6024e-06, No Iterations 3
ExecutionTime = 0.1581 s  ClockTime = 1 s

Courant Number mean: 0.0156606 max: 0.107679
Time = 0.23s

smoothSolver:  Solving for Ux, Initial residual = 0.00858987, Final residual = 1.55972e-06, No Iterations 3
smoothSolver:  Solving for Uy, Initial residual = 0.00992922, Final residual = 2.00966e-06, No Iterations 3
GAMG:  Solving for p, Initial residual = 0.0156633, Final residual = 0.00040008, No Iterations 2
time step continuity errors : sum local = 1.9462e-07, global = 5.49351e-20
GAMG:  Solving for p, Initial residual = 0.000833392, Final residual = 5.52181e-07, No Iterations 7
time step continuity errors : sum local = 3.03531e-10, global = -7.5687e-21, cumulative = 9.8293e-20
smoothSolver:  Solving for epsilon, Initial residual = 0.0186319, Final residual = 2.04442e-06, No Iterations 3
smoothSolver:  Solving for k, Initial residual = 0.0491385, Final residual = 9.327e-06, No Iterations 3
ExecutionTime = 0.15909 s  ClockTime = 1 s

Courant Number mean: 0.0159319 max: 0.108807
Time = 0.235s

smoothSolver:  Solving for Ux, Initial residual = 0.00838175, Final residual = 1.52779e-06, No Iterations 3
smoothSolver:  Solving for Uy, Initial residual = 0.00982798, Final residual = 1.99557e-06, No Iterations 3
GAMG:  Solving for p, Initial residual = 0.00954974, Final residual = 0.000258978, No Iterations 2
time step continuity errors : sum local = 1.26716e-07, global = 2.19513e-20
GAMG:  Solving for p, Initial residual = 0.000534244, Final residual = 6.62203e-07, No Iterations 6
time step continuity errors : sum local = 3.64719e-10, global = -6.37963e-21, cumulative = 9.19133e-20
smoothSolver:  Solving for epsilon, Initial residual = 0.0183471, Final residual = 2.00458e-06, No Iterations 3
smoothSolver:  Solving for k, Initial residual = 0.04768, Final residual = 8.92425e-06, No Iterations 3
ExecutionTime = 0.160059 s  ClockTime = 1 s

Courant Number mean: 0.0161999 max: 0.109931
Time = 0.24s

smoothSolver:  Solving for Ux, Initial residual = 0.0081871, Final residual = 1.49628e-06, No Iterations 3
smoothSolver:  Solving for Uy, Initial residual = 0.00963989, Final residual = 1.96516e-06, No Iterations 3
GAMG:  Solving for p, Initial residual = 0.00938426, Final residual = 0.000255779, No Iterations 2
time step continuity errors : sum local = 1.2563e-07, global = -7.23783e-21
GAMG:  Solving for p, Initial residual = 0.000531731, Final residual = 6.79595e-07, No Iterations 6
time step continuity errors : sum local = 3.76002e-10, global = -3.45141e-20, cumulative = 5.73992e-20
smoothSolver:  Solving for epsilon, Initial residual = 0.0180538, Final residual = 1.96543e-06, No Iterations 3
smoothSolver:  Solving for k, Initial residual = 0.046281, Final residual = 8.64503e-06, No Iterations 3
ExecutionTime = 0.161136 s  ClockTime = 1 s

Courant Number mean: 0.0164649 max: 0.111043
Time = 0.245s

smoothSolver:  Solving for Ux, Initial residual = 0.00799852, Final residual = 1.47022e-06, No Iterations 3
smoothSolver:  Solving for Uy, Initial residual = 0.00945469, Final residual = 1.93627e-06, No Iterations 3
GAMG:  Solving for p, Initial residual = 0.0109056, Final residual = 0.000264951, No Iterations 2
time step continuity errors : sum local = 1.30326e-07, global = 8.77018e-20
GAMG:  Solving for p, Initial residual = 0.000539073, Final residual = 6.16781e-07, No Iterations 6
time step continuity errors : sum local = 3.42004e-10, global = 1.49461e-19, cumulative = 2.0686e-19
smoothSolver:  Solving for epsilon, Initial residual = 0.0177623, Final residual = 1.92569e-06, No Iterations 3
smoothSolver:  Solving for k, Initial residual = 0.0449428, Final residual = 8.37517e-06, No Iterations 3
ExecutionTime = 0.16217 s  ClockTime = 1 s

Courant Number mean: 0.0167263 max: 0.112146
Time = 0.25s

smoothSolver:  Solving for Ux, Initial residual = 0.00782228, Final residual = 1.44838e-06, No Iterations 3
smoothSolver:  Solving for Uy, Initial residual = 0.00926209, Final residual = 1.90527e-06, No Iterations 3
GAMG:  Solving for p, Initial residual = 0.0138149, Final residual = 0.000296043, No Iterations 2
time step continuity errors : sum local = 1.44773e-07, global = 6.72003e-22
GAMG:  Solving for p, Initial residual = 0.000594573, Final residual = 5.92843e-07, No Iterations 6
time step continuity errors : sum local = 3.27321e-10, global = 8.93769e-20, cumulative = 2.96237e-19
smoothSolver:  Solving for epsilon, Initial residual = 0.0174689, Final residual = 1.88604e-06, No Iterations 3
smoothSolver:  Solving for k, Initial residual = 0.0436641, Final residual = 8.10777e-06, No Iterations 3
ExecutionTime = 0.163676 s  ClockTime = 1 s

Courant Number mean: 0.016984 max: 0.113238
Time = 0.255s

smoothSolver:  Solving for Ux, Initial residual = 0.00766345, Final residual = 1.43679e-06, No Iterations 3
smoothSolver:  Solving for Uy, Initial residual = 0.00907317, Final residual = 1.87334e-06, No Iterations 3
GAMG:  Solving for p, Initial residual = 0.0102606, Final residual = 0.000257976, No Iterations 2
time step continuity errors : sum local = 1.27018e-07, global = -1.99764e-20
GAMG:  Solving for p, Initial residual = 0.000592808, Final residual = 7.93868e-07, No Iterations 6
time step continuity errors : sum local = 4.41163e-10, global = -1.46773e-19, cumulative = 1.49464e-19
smoothSolver:  Solving for epsilon, Initial residual = 0.0171646, Final residual = 1.84749e-06, No Iterations 3
smoothSolver:  Solving for k, Initial residual = 0.0424381, Final residual = 7.85738e-06, No Iterations 3
ExecutionTime = 0.164662 s  ClockTime = 1 s

Courant Number mean: 0.0172397 max: 0.114293
Time = 0.26s

smoothSolver:  Solving for Ux, Initial residual = 0.00748925, Final residual = 1.41313e-06, No Iterations 3
smoothSolver:  Solving for Uy, Initial residual = 0.00893881, Final residual = 1.85281e-06, No Iterations 3
GAMG:  Solving for p, Initial residual = 0.0106338, Final residual = 0.00025414, No Iterations 2
time step continuity errors : sum local = 1.25941e-07, global = -6.97003e-20
GAMG:  Solving for p, Initial residual = 0.000532827, Final residual = 7.05174e-07, No Iterations 6
time step continuity errors : sum local = 3.92492e-10, global = -3.19912e-20, cumulative = 1.17473e-19
smoothSolver:  Solving for epsilon, Initial residual = 0.0168555, Final residual = 1.80783e-06, No Iterations 3
smoothSolver:  Solving for k, Initial residual = 0.0412662, Final residual = 7.62408e-06, No Iterations 3
ExecutionTime = 0.165643 s  ClockTime = 1 s

Courant Number mean: 0.0174929 max: 0.115337
Time = 0.265s

smoothSolver:  Solving for Ux, Initial residual = 0.00733947, Final residual = 1.39358e-06, No Iterations 3
smoothSolver:  Solving for Uy, Initial residual = 0.00878692, Final residual = 1.82734e-06, No Iterations 3
GAMG:  Solving for p, Initial residual = 0.00945846, Final residual = 0.000246829, No Iterations 2
time step continuity errors : sum local = 1.228e-07, global = -7.1913e-20
GAMG:  Solving for p, Initial residual = 0.00054037, Final residual = 8.23551e-07, No Iterations 6
time step continuity errors : sum local = 4.59559e-10, global = -4.15658e-21, cumulative = 1.13317e-19
smoothSolver:  Solving for epsilon, Initial residual = 0.0165486, Final residual = 1.77048e-06, No Iterations 3
smoothSolver:  Solving for k, Initial residual = 0.0401359, Final residual = 7.30667e-06, No Iterations 3
ExecutionTime = 0.16671 s  ClockTime = 1 s

Courant Number mean: 0.0177438 max: 0.116361
Time = 0.27s

smoothSolver:  Solving for Ux, Initial residual = 0.00719417, Final residual = 1.37222e-06, No Iterations 3
smoothSolver:  Solving for Uy, Initial residual = 0.00865976, Final residual = 1.80695e-06, No Iterations 3
GAMG:  Solving for p, Initial residual = 0.00939072, Final residual = 0.000243527, No Iterations 2
time step continuity errors : sum local = 1.21689e-07, global = -3.87224e-20
GAMG:  Solving for p, Initial residual = 0.000517258, Final residual = 6.58974e-07, No Iterations 6
time step continuity errors : sum local = 3.71117e-10, global = -8.0526e-20, cumulative = 3.27906e-20
smoothSolver:  Solving for epsilon, Initial residual = 0.0162505, Final residual = 1.73461e-06, No Iterations 3
smoothSolver:  Solving for k, Initial residual = 0.0390408, Final residual = 7.09081e-06, No Iterations 3
ExecutionTime = 0.167675 s  ClockTime = 1 s

Courant Number mean: 0.0179922 max: 0.117369
Time = 0.275s

smoothSolver:  Solving for Ux, Initial residual = 0.0070568, Final residual = 1.35087e-06, No Iterations 3
smoothSolver:  Solving for Uy, Initial residual = 0.00851283, Final residual = 1.78238e-06, No Iterations 3
GAMG:  Solving for p, Initial residual = 0.00912546, Final residual = 0.000238107, No Iterations 2
time step continuity errors : sum local = 1.1969e-07, global = -1.37416e-20
GAMG:  Solving for p, Initial residual = 0.00051312, Final residual = 7.29332e-07, No Iterations 6
time step continuity errors : sum local = 4.11768e-10, global = -6.10769e-20, cumulative = -2.82863e-20
smoothSolver:  Solving for epsilon, Initial residual = 0.0159572, Final residual = 1.69928e-06, No Iterations 3
smoothSolver:  Solving for k, Initial residual = 0.0379861, Final residual = 6.88068e-06, No Iterations 3
ExecutionTime = 0.168654 s  ClockTime = 1 s

Courant Number mean: 0.018238 max: 0.118359
Time = 0.28s

smoothSolver:  Solving for Ux, Initial residual = 0.00692169, Final residual = 1.3373e-06, No Iterations 3
smoothSolver:  Solving for Uy, Initial residual = 0.00837702, Final residual = 1.75344e-06, No Iterations 3
GAMG:  Solving for p, Initial residual = 0.00918255, Final residual = 0.000235004, No Iterations 2
time step continuity errors : sum local = 1.18884e-07, global = 5.72202e-20
GAMG:  Solving for p, Initial residual = 0.000498726, Final residual = 7.45411e-07, No Iterations 6
time step continuity errors : sum local = 4.22943e-10, global = 3.07194e-20, cumulative = 2.43307e-21
smoothSolver:  Solving for epsilon, Initial residual = 0.0156754, Final residual = 1.66391e-06, No Iterations 3
smoothSolver:  Solving for k, Initial residual = 0.0369658, Final residual = 6.67257e-06, No Iterations 3
ExecutionTime = 0.169627 s  ClockTime = 1 s

Courant Number mean: 0.0184812 max: 0.119324
Time = 0.285s

smoothSolver:  Solving for Ux, Initial residual = 0.00679098, Final residual = 1.30338e-06, No Iterations 3
smoothSolver:  Solving for Uy, Initial residual = 0.00824062, Final residual = 1.69844e-06, No Iterations 3
GAMG:  Solving for p, Initial residual = 0.00864022, Final residual = 0.000216485, No Iterations 2
time step continuity errors : sum local = 1.10562e-07, global = 3.58583e-20
GAMG:  Solving for p, Initial residual = 0.000475768, Final residual = 6.27808e-07, No Iterations 6
time step continuity errors : sum local = 3.59693e-10, global = 1.38212e-19, cumulative = 1.40645e-19
smoothSolver:  Solving for epsilon, Initial residual = 0.0153996, Final residual = 1.62685e-06, No Iterations 3
smoothSolver:  Solving for k, Initial residual = 0.0359829, Final residual = 6.48241e-06, No Iterations 3
ExecutionTime = 0.170619 s  ClockTime = 1 s

Courant Number mean: 0.0187226 max: 0.1205
Time = 0.29s

smoothSolver:  Solving for Ux, Initial residual = 0.00666495, Final residual = 1.28466e-06, No Iterations 3
smoothSolver:  Solving for Uy, Initial residual = 0.00810826, Final residual = 1.67653e-06, No Iterations 3
GAMG:  Solving for p, Initial residual = 0.0114893, Final residual = 0.000303, No Iterations 2
time step continuity errors : sum local = 1.53093e-07, global = 3.24255e-20
GAMG:  Solving for p, Initial residual = 0.000593605, Final residual = 5.69184e-07, No Iterations 6
time step continuity errors : sum local = 3.2714e-10, global = 3.13398e-20, cumulative = 1.71984e-19
smoothSolver:  Solving for epsilon, Initial residual = 0.0151298, Final residual = 1.59214e-06, No Iterations 3
smoothSolver:  Solving for k, Initial residual = 0.0350405, Final residual = 6.30634e-06, No Iterations 3
ExecutionTime = 0.171601 s  ClockTime = 1 s

Courant Number mean: 0.0189618 max: 0.121786
Time = 0.295s

smoothSolver:  Solving for Ux, Initial residual = 0.00654015, Final residual = 1.26445e-06, No Iterations 3
smoothSolver:  Solving for Uy, Initial residual = 0.00799115, Final residual = 1.6526e-06, No Iterations 3
GAMG:  Solving for p, Initial residual = 0.00953139, Final residual = 0.000255917, No Iterations 2
time step continuity errors : sum local = 1.30514e-07, global = 3.43228e-20
GAMG:  Solving for p, Initial residual = 0.000520883, Final residual = 7.10458e-07, No Iterations 6
time step continuity errors : sum local = 4.08699e-10, global = 3.47933e-20, cumulative = 2.06778e-19
smoothSolver:  Solving for epsilon, Initial residual = 0.0148656, Final residual = 1.55853e-06, No Iterations 3
smoothSolver:  Solving for k, Initial residual = 0.0341426, Final residual = 6.14715e-06, No Iterations 3
ExecutionTime = 0.172725 s  ClockTime = 1 s

Courant Number mean: 0.019199 max: 0.123055
Time = 0.3s

smoothSolver:  Solving for Ux, Initial residual = 0.00641749, Final residual = 1.24568e-06, No Iterations 3
smoothSolver:  Solving for Uy, Initial residual = 0.00787592, Final residual = 1.63134e-06, No Iterations 3
GAMG:  Solving for p, Initial residual = 0.00917905, Final residual = 0.000238228, No Iterations 2
time step continuity errors : sum local = 1.22454e-07, global = -5.17298e-20
GAMG:  Solving for p, Initial residual = 0.000502288, Final residual = 7.7833e-07, No Iterations 6
time step continuity errors : sum local = 4.49e-10, global = 3.46382e-20, cumulative = 2.41416e-19
smoothSolver:  Solving for epsilon, Initial residual = 0.0146078, Final residual = 1.52367e-06, No Iterations 3
smoothSolver:  Solving for k, Initial residual = 0.0332858, Final residual = 5.98027e-06, No Iterations 3
ExecutionTime = 0.173917 s  ClockTime = 1 s

Courant Number mean: 0.0194341 max: 0.124317
Time = 0.305s

smoothSolver:  Solving for Ux, Initial residual = 0.00629954, Final residual = 1.25491e-06, No Iterations 3
smoothSolver:  Solving for Uy, Initial residual = 0.00776356, Final residual = 1.6116e-06, No Iterations 3
GAMG:  Solving for p, Initial residual = 0.00943911, Final residual = 0.000233861, No Iterations 2
time step continuity errors : sum local = 1.21131e-07, global = 1.31108e-20
GAMG:  Solving for p, Initial residual = 0.000505438, Final residual = 7.71352e-07, No Iterations 6
time step continuity errors : sum local = 4.48003e-10, global = -6.51405e-21, cumulative = 2.34902e-19
smoothSolver:  Solving for epsilon, Initial residual = 0.0143673, Final residual = 1.49163e-06, No Iterations 3
smoothSolver:  Solving for k, Initial residual = 0.0324609, Final residual = 5.82204e-06, No Iterations 3
ExecutionTime = 0.174905 s  ClockTime = 1 s

Courant Number mean: 0.0196668 max: 0.125571
Time = 0.31s

smoothSolver:  Solving for Ux, Initial residual = 0.00618472, Final residual = 1.25828e-06, No Iterations 3
smoothSolver:  Solving for Uy, Initial residual = 0.00765254, Final residual = 1.59246e-06, No Iterations 3
GAMG:  Solving for p, Initial residual = 0.00887772, Final residual = 0.000232769, No Iterations 2
time step continuity errors : sum local = 1.21198e-07, global = -4.92689e-20
GAMG:  Solving for p, Initial residual = 0.000491834, Final residual = 7.52368e-07, No Iterations 6
time step continuity errors : sum local = 4.39716e-10, global = -1.48789e-20, cumulative = 2.20023e-19
smoothSolver:  Solving for epsilon, Initial residual = 0.0141217, Final residual = 1.45987e-06, No Iterations 3
smoothSolver:  Solving for k, Initial residual = 0.0316684, Final residual = 5.66073e-06, No Iterations 3
ExecutionTime = 0.175883 s  ClockTime = 1 s

Courant Number mean: 0.019897 max: 0.126816
Time = 0.315s

smoothSolver:  Solving for Ux, Initial residual = 0.00607239, Final residual = 1.24928e-06, No Iterations 3
smoothSolver:  Solving for Uy, Initial residual = 0.00754037, Final residual = 1.57671e-06, No Iterations 3
GAMG:  Solving for p, Initial residual = 0.00886659, Final residual = 0.000232251, No Iterations 2
time step continuity errors : sum local = 1.2174e-07, global = -5.00134e-20
GAMG:  Solving for p, Initial residual = 0.000489876, Final residual = 7.46596e-07, No Iterations 6
time step continuity errors : sum local = 4.39122e-10, global = 8.33901e-20, cumulative = 3.03413e-19
smoothSolver:  Solving for epsilon, Initial residual = 0.0138775, Final residual = 1.42775e-06, No Iterations 3
smoothSolver:  Solving for k, Initial residual = 0.0309078, Final residual = 5.52253e-06, No Iterations 3
ExecutionTime = 0.176946 s  ClockTime = 1 s

Courant Number mean: 0.0201269 max: 0.128051
Time = 0.32s

smoothSolver:  Solving for Ux, Initial residual = 0.00596216, Final residual = 1.24311e-06, No Iterations 3
smoothSolver:  Solving for Uy, Initial residual = 0.00742982, Final residual = 1.55839e-06, No Iterations 3
GAMG:  Solving for p, Initial residual = 0.00921224, Final residual = 0.000235516, No Iterations 2
time step continuity errors : sum local = 1.24199e-07, global = 1.75621e-20
GAMG:  Solving for p, Initial residual = 0.000488227, Final residual = 7.87742e-07, No Iterations 6
time step continuity errors : sum local = 4.65914e-10, global = 1.13019e-19, cumulative = 4.16432e-19
smoothSolver:  Solving for epsilon, Initial residual = 0.0136462, Final residual = 1.39764e-06, No Iterations 3
smoothSolver:  Solving for k, Initial residual = 0.0301776, Final residual = 5.39047e-06, No Iterations 3
ExecutionTime = 0.177992 s  ClockTime = 1 s

Courant Number mean: 0.0203565 max: 0.129275
Time = 0.325s

smoothSolver:  Solving for Ux, Initial residual = 0.00585386, Final residual = 1.23968e-06, No Iterations 3
smoothSolver:  Solving for Uy, Initial residual = 0.00732431, Final residual = 1.54183e-06, No Iterations 3
GAMG:  Solving for p, Initial residual = 0.00924427, Final residual = 0.000238514, No Iterations 2
time step continuity errors : sum local = 1.26417e-07, global = 1.42482e-20
GAMG:  Solving for p, Initial residual = 0.000492213, Final residual = 8.14997e-07, No Iterations 6
time step continuity errors : sum local = 4.84645e-10, global = 1.59842e-19, cumulative = 5.76274e-19
smoothSolver:  Solving for epsilon, Initial residual = 0.013407, Final residual = 1.36732e-06, No Iterations 3
smoothSolver:  Solving for k, Initial residual = 0.0294809, Final residual = 5.26411e-06, No Iterations 3
ExecutionTime = 0.179027 s  ClockTime = 1 s

Courant Number mean: 0.0205869 max: 0.130488
Time = 0.33s

smoothSolver:  Solving for Ux, Initial residual = 0.00575202, Final residual = 1.23919e-06, No Iterations 3
smoothSolver:  Solving for Uy, Initial residual = 0.00722242, Final residual = 1.52678e-06, No Iterations 3
GAMG:  Solving for p, Initial residual = 0.00922254, Final residual = 0.000232693, No Iterations 2
time step continuity errors : sum local = 1.23737e-07, global = -1.15888e-19
GAMG:  Solving for p, Initial residual = 0.000496984, Final residual = 6.70459e-07, No Iterations 6
time step continuity errors : sum local = 4.02271e-10, global = 2.75761e-20, cumulative = 6.0385e-19
smoothSolver:  Solving for epsilon, Initial residual = 0.0131708, Final residual = 1.33828e-06, No Iterations 3
smoothSolver:  Solving for k, Initial residual = 0.0288083, Final residual = 5.12254e-06, No Iterations 3
ExecutionTime = 0.180052 s  ClockTime = 1 s

Courant Number mean: 0.0208155 max: 0.131689
Time = 0.335s

smoothSolver:  Solving for Ux, Initial residual = 0.00565299, Final residual = 1.23547e-06, No Iterations 3
smoothSolver:  Solving for Uy, Initial residual = 0.00712339, Final residual = 1.51001e-06, No Iterations 3
GAMG:  Solving for p, Initial residual = 0.00875423, Final residual = 0.000239024, No Iterations 2
time step continuity errors : sum local = 1.28283e-07, global = -9.29544e-21
GAMG:  Solving for p, Initial residual = 0.000484512, Final residual = 7.85588e-07, No Iterations 6
time step continuity errors : sum local = 4.73649e-10, global = 3.93841e-20, cumulative = 6.43234e-19
smoothSolver:  Solving for epsilon, Initial residual = 0.0129406, Final residual = 1.30484e-06, No Iterations 3
smoothSolver:  Solving for k, Initial residual = 0.0281596, Final residual = 4.99622e-06, No Iterations 3
ExecutionTime = 0.181047 s  ClockTime = 1 s

Courant Number mean: 0.0210439 max: 0.132878
Time = 0.34s

smoothSolver:  Solving for Ux, Initial residual = 0.00555742, Final residual = 1.21647e-06, No Iterations 3
smoothSolver:  Solving for Uy, Initial residual = 0.00703462, Final residual = 1.49651e-06, No Iterations 3
GAMG:  Solving for p, Initial residual = 0.00870526, Final residual = 0.000239509, No Iterations 2
time step continuity errors : sum local = 1.29361e-07, global = 4.88243e-20
GAMG:  Solving for p, Initial residual = 0.000474624, Final residual = 7.81244e-07, No Iterations 6
time step continuity errors : sum local = 4.74325e-10, global = 1.97076e-20, cumulative = 6.62942e-19
smoothSolver:  Solving for epsilon, Initial residual = 0.0127031, Final residual = 1.27499e-06, No Iterations 3
smoothSolver:  Solving for k, Initial residual = 0.0275376, Final residual = 4.8667e-06, No Iterations 3
ExecutionTime = 0.18203 s  ClockTime = 1 s

Courant Number mean: 0.0212709 max: 0.134053
Time = 0.345s

smoothSolver:  Solving for Ux, Initial residual = 0.00546655, Final residual = 1.19908e-06, No Iterations 3
smoothSolver:  Solving for Uy, Initial residual = 0.00694385, Final residual = 1.48429e-06, No Iterations 3
GAMG:  Solving for p, Initial residual = 0.00885041, Final residual = 0.000243592, No Iterations 2
time step continuity errors : sum local = 1.32343e-07, global = 2.37814e-20
GAMG:  Solving for p, Initial residual = 0.000470818, Final residual = 7.73558e-07, No Iterations 6
time step continuity errors : sum local = 4.73017e-10, global = 3.47985e-20, cumulative = 6.9774e-19
smoothSolver:  Solving for epsilon, Initial residual = 0.0124788, Final residual = 1.2472e-06, No Iterations 3
smoothSolver:  Solving for k, Initial residual = 0.0269352, Final residual = 4.74838e-06, No Iterations 3
ExecutionTime = 0.183054 s  ClockTime = 1 s

Courant Number mean: 0.0214958 max: 0.135215
Time = 0.35s

smoothSolver:  Solving for Ux, Initial residual = 0.00538094, Final residual = 1.18528e-06, No Iterations 3
smoothSolver:  Solving for Uy, Initial residual = 0.00685095, Final residual = 1.47175e-06, No Iterations 3
GAMG:  Solving for p, Initial residual = 0.00877826, Final residual = 0.000255469, No Iterations 2
time step continuity errors : sum local = 1.39636e-07, global = 3.87534e-20
GAMG:  Solving for p, Initial residual = 0.00048348, Final residual = 8.1909e-07, No Iterations 6
time step continuity errors : sum local = 5.03977e-10, global = 4.92172e-21, cumulative = 7.02662e-19
smoothSolver:  Solving for epsilon, Initial residual = 0.0122566, Final residual = 1.22035e-06, No Iterations 3
smoothSolver:  Solving for k, Initial residual = 0.0263592, Final residual = 4.6364e-06, No Iterations 3
ExecutionTime = 0.184059 s  ClockTime = 1 s

Courant Number mean: 0.0217195 max: 0.136408
Time = 0.355s

smoothSolver:  Solving for Ux, Initial residual = 0.00529567, Final residual = 1.1716e-06, No Iterations 3
smoothSolver:  Solving for Uy, Initial residual = 0.00677051, Final residual = 1.46127e-06, No Iterations 3
GAMG:  Solving for p, Initial residual = 0.00900682, Final residual = 0.000249468, No Iterations 2
time step continuity errors : sum local = 1.37411e-07, global = -8.26043e-20
GAMG:  Solving for p, Initial residual = 0.000481499, Final residual = 8.88105e-07, No Iterations 6
time step continuity errors : sum local = 5.49469e-10, global = -1.45729e-19, cumulative = 5.56934e-19
smoothSolver:  Solving for epsilon, Initial residual = 0.0120366, Final residual = 1.19477e-06, No Iterations 3
smoothSolver:  Solving for k, Initial residual = 0.0258064, Final residual = 4.52359e-06, No Iterations 3
ExecutionTime = 0.185563 s  ClockTime = 1 s

Courant Number mean: 0.0219427 max: 0.137638
Time = 0.36s

smoothSolver:  Solving for Ux, Initial residual = 0.00521536, Final residual = 1.15867e-06, No Iterations 3
smoothSolver:  Solving for Uy, Initial residual = 0.0066931, Final residual = 1.45152e-06, No Iterations 3
GAMG:  Solving for p, Initial residual = 0.00922484, Final residual = 0.00025643, No Iterations 2
time step continuity errors : sum local = 1.42243e-07, global = 5.04787e-20
GAMG:  Solving for p, Initial residual = 0.000479142, Final residual = 9.04395e-07, No Iterations 6
time step continuity errors : sum local = 5.63884e-10, global = 7.61006e-21, cumulative = 5.64544e-19
smoothSolver:  Solving for epsilon, Initial residual = 0.0118308, Final residual = 1.16829e-06, No Iterations 3
smoothSolver:  Solving for k, Initial residual = 0.0252692, Final residual = 4.42368e-06, No Iterations 3
ExecutionTime = 0.18655 s  ClockTime = 1 s

Courant Number mean: 0.0221653 max: 0.138857
Time = 0.365s

smoothSolver:  Solving for Ux, Initial residual = 0.00513924, Final residual = 1.14615e-06, No Iterations 3
smoothSolver:  Solving for Uy, Initial residual = 0.00662083, Final residual = 1.4429e-06, No Iterations 3
GAMG:  Solving for p, Initial residual = 0.00953011, Final residual = 0.000262448, No Iterations 2
time step continuity errors : sum local = 1.4596e-07, global = 1.19269e-20
GAMG:  Solving for p, Initial residual = 0.000479765, Final residual = 8.14457e-07, No Iterations 6
time step continuity errors : sum local = 5.11737e-10, global = -1.08113e-19, cumulative = 4.56431e-19
smoothSolver:  Solving for epsilon, Initial residual = 0.0116131, Final residual = 1.14112e-06, No Iterations 3
smoothSolver:  Solving for k, Initial residual = 0.0247703, Final residual = 4.31193e-06, No Iterations 3
ExecutionTime = 0.18753 s  ClockTime = 1 s

Courant Number mean: 0.0223861 max: 0.140065
Time = 0.37s

smoothSolver:  Solving for Ux, Initial residual = 0.00506754, Final residual = 1.1338e-06, No Iterations 3
smoothSolver:  Solving for Uy, Initial residual = 0.00653965, Final residual = 1.43312e-06, No Iterations 3
GAMG:  Solving for p, Initial residual = 0.00996724, Final residual = 0.000273181, No Iterations 2
time step continuity errors : sum local = 1.53024e-07, global = 1.05548e-19
GAMG:  Solving for p, Initial residual = 0.000505966, Final residual = 4.54736e-07, No Iterations 7
time step continuity errors : sum local = 2.89162e-10, global = -8.99094e-20, cumulative = 3.66522e-19
smoothSolver:  Solving for epsilon, Initial residual = 0.0114094, Final residual = 1.11668e-06, No Iterations 3
smoothSolver:  Solving for k, Initial residual = 0.0242761, Final residual = 4.21819e-06, No Iterations 3
ExecutionTime = 0.18854 s  ClockTime = 1 s

Courant Number mean: 0.0226057 max: 0.141265
Time = 0.375s

smoothSolver:  Solving for Ux, Initial residual = 0.00499805, Final residual = 1.11919e-06, No Iterations 3
smoothSolver:  Solving for Uy, Initial residual = 0.00646534, Final residual = 1.41643e-06, No Iterations 3
GAMG:  Solving for p, Initial residual = 0.00904059, Final residual = 0.000263116, No Iterations 2
time step continuity errors : sum local = 1.49409e-07, global = -4.14314e-20
GAMG:  Solving for p, Initial residual = 0.000461468, Final residual = 8.11415e-07, No Iterations 6
time step continuity errors : sum local = 5.19729e-10, global = -1.06882e-19, cumulative = 2.5964e-19
smoothSolver:  Solving for epsilon, Initial residual = 0.0112084, Final residual = 1.09143e-06, No Iterations 3
smoothSolver:  Solving for k, Initial residual = 0.0237949, Final residual = 4.123e-06, No Iterations 3
ExecutionTime = 0.189648 s  ClockTime = 1 s

Courant Number mean: 0.0228256 max: 0.142441
Time = 0.38s

smoothSolver:  Solving for Ux, Initial residual = 0.00493063, Final residual = 1.10599e-06, No Iterations 3
smoothSolver:  Solving for Uy, Initial residual = 0.00641159, Final residual = 1.40674e-06, No Iterations 3
GAMG:  Solving for p, Initial residual = 0.00921788, Final residual = 0.000266569, No Iterations 2
time step continuity errors : sum local = 1.52674e-07, global = 2.5441e-20
GAMG:  Solving for p, Initial residual = 0.000461156, Final residual = 7.82175e-07, No Iterations 6
time step continuity errors : sum local = 5.05393e-10, global = -1.07756e-19, cumulative = 1.51884e-19
smoothSolver:  Solving for epsilon, Initial residual = 0.0110093, Final residual = 1.06866e-06, No Iterations 3
smoothSolver:  Solving for k, Initial residual = 0.02333, Final residual = 4.03076e-06, No Iterations 3
ExecutionTime = 0.190854 s  ClockTime = 1 s

Courant Number mean: 0.0230437 max: 0.14359
Time = 0.385s

smoothSolver:  Solving for Ux, Initial residual = 0.00486479, Final residual = 1.09289e-06, No Iterations 3
smoothSolver:  Solving for Uy, Initial residual = 0.00636131, Final residual = 1.39922e-06, No Iterations 3
GAMG:  Solving for p, Initial residual = 0.00946276, Final residual = 0.000276015, No Iterations 2
time step continuity errors : sum local = 1.58707e-07, global = -6.7255e-20
GAMG:  Solving for p, Initial residual = 0.000466615, Final residual = 9.53779e-07, No Iterations 6
time step continuity errors : sum local = 6.18469e-10, global = -1.15676e-19, cumulative = 3.62079e-20
smoothSolver:  Solving for epsilon, Initial residual = 0.0108105, Final residual = 1.0495e-06, No Iterations 3
smoothSolver:  Solving for k, Initial residual = 0.0228783, Final residual = 3.9305e-06, No Iterations 3
ExecutionTime = 0.19187 s  ClockTime = 1 s

Courant Number mean: 0.0232604 max: 0.144721
Time = 0.39s

smoothSolver:  Solving for Ux, Initial residual = 0.00480007, Final residual = 1.07855e-06, No Iterations 3
smoothSolver:  Solving for Uy, Initial residual = 0.00630356, Final residual = 1.38801e-06, No Iterations 3
GAMG:  Solving for p, Initial residual = 0.00924436, Final residual = 0.000239772, No Iterations 2
time step continuity errors : sum local = 1.39366e-07, global = -5.03391e-20
GAMG:  Solving for p, Initial residual = 0.000436889, Final residual = 6.7826e-07, No Iterations 6
time step continuity errors : sum local = 4.43732e-10, global = -5.70961e-20, cumulative = -2.08882e-20
smoothSolver:  Solving for epsilon, Initial residual = 0.0106129, Final residual = 1.02182e-06, No Iterations 3
smoothSolver:  Solving for k, Initial residual = 0.0224347, Final residual = 3.83757e-06, No Iterations 3
ExecutionTime = 0.192901 s  ClockTime = 1 s

Courant Number mean: 0.023478 max: 0.145847
Time = 0.395s

smoothSolver:  Solving for Ux, Initial residual = 0.00473701, Final residual = 1.06313e-06, No Iterations 3
smoothSolver:  Solving for Uy, Initial residual = 0.00620104, Final residual = 1.36782e-06, No Iterations 3
GAMG:  Solving for p, Initial residual = 0.00802306, Final residual = 0.000284789, No Iterations 2
time step continuity errors : sum local = 1.65334e-07, global = 4.03251e-20
GAMG:  Solving for p, Initial residual = 0.00045696, Final residual = 9.14809e-07, No Iterations 6
time step continuity errors : sum local = 5.98391e-10, global = 6.0286e-20, cumulative = 3.93977e-20
smoothSolver:  Solving for epsilon, Initial residual = 0.0104172, Final residual = 9.99798e-07, No Iterations 3
smoothSolver:  Solving for k, Initial residual = 0.0220004, Final residual = 3.75376e-06, No Iterations 3
ExecutionTime = 0.193883 s  ClockTime = 1 s

Courant Number mean: 0.0236942 max: 0.146957
Time = 0.4s

smoothSolver:  Solving for Ux, Initial residual = 0.00467498, Final residual = 1.05002e-06, No Iterations 3
smoothSolver:  Solving for Uy, Initial residual = 0.00613603, Final residual = 1.35723e-06, No Iterations 3
GAMG:  Solving for p, Initial residual = 0.00994186, Final residual = 0.000266575, No Iterations 2
time step continuity errors : sum local = 1.55922e-07, global = -1.22392e-19
GAMG:  Solving for p, Initial residual = 0.000462044, Final residual = 8.20608e-07, No Iterations 6
time step continuity errors : sum local = 5.39582e-10, global = -8.06553e-20, cumulative = -4.12576e-20
smoothSolver:  Solving for epsilon, Initial residual = 0.0102238, Final residual = 9.78869e-07, No Iterations 3
smoothSolver:  Solving for k, Initial residual = 0.0215667, Final residual = 3.6622e-06, No Iterations 3
ExecutionTime = 0.195018 s  ClockTime = 1 s

Courant Number mean: 0.0239084 max: 0.148058
Time = 0.405s

smoothSolver:  Solving for Ux, Initial residual = 0.0046165, Final residual = 1.03615e-06, No Iterations 3
smoothSolver:  Solving for Uy, Initial residual = 0.00604394, Final residual = 1.34077e-06, No Iterations 3
GAMG:  Solving for p, Initial residual = 0.00790801, Final residual = 0.000290929, No Iterations 2
time step continuity errors : sum local = 1.70341e-07, global = -3.93945e-21
GAMG:  Solving for p, Initial residual = 0.000463647, Final residual = 9.00723e-07, No Iterations 6
time step continuity errors : sum local = 5.95727e-10, global = -5.09026e-20, cumulative = -9.21602e-20
smoothSolver:  Solving for epsilon, Initial residual = 0.0100361, Final residual = 9.58081e-07, No Iterations 3
smoothSolver:  Solving for k, Initial residual = 0.0211203, Final residual = 3.57612e-06, No Iterations 3
ExecutionTime = 0.196043 s  ClockTime = 1 s

Courant Number mean: 0.0241217 max: 0.149139
Time = 0.41s

smoothSolver:  Solving for Ux, Initial residual = 0.00455389, Final residual = 1.02423e-06, No Iterations 3
smoothSolver:  Solving for Uy, Initial residual = 0.00600015, Final residual = 1.3378e-06, No Iterations 3
GAMG:  Solving for p, Initial residual = 0.00815268, Final residual = 0.000290366, No Iterations 2
time step continuity errors : sum local = 1.7084e-07, global = -9.4433e-20
GAMG:  Solving for p, Initial residual = 0.000442735, Final residual = 9.34372e-07, No Iterations 6
time step continuity errors : sum local = 6.20078e-10, global = -4.87571e-20, cumulative = -1.40917e-19
smoothSolver:  Solving for epsilon, Initial residual = 0.00986175, Final residual = 9.38741e-07, No Iterations 3
smoothSolver:  Solving for k, Initial residual = 0.0206879, Final residual = 3.48126e-06, No Iterations 3
ExecutionTime = 0.197031 s  ClockTime = 1 s

Courant Number mean: 0.0243331 max: 0.150203
Time = 0.415s

smoothSolver:  Solving for Ux, Initial residual = 0.00449358, Final residual = 1.01228e-06, No Iterations 3
smoothSolver:  Solving for Uy, Initial residual = 0.00593809, Final residual = 1.33117e-06, No Iterations 3
GAMG:  Solving for p, Initial residual = 0.00785712, Final residual = 0.000292089, No Iterations 2
time step continuity errors : sum local = 1.73213e-07, global = 7.44669e-20
GAMG:  Solving for p, Initial residual = 0.000447961, Final residual = 9.5156e-07, No Iterations 6
time step continuity errors : sum local = 6.36412e-10, global = -8.1149e-20, cumulative = -2.22066e-19
smoothSolver:  Solving for epsilon, Initial residual = 0.00967931, Final residual = 9.18469e-07, No Iterations 3
smoothSolver:  Solving for k, Initial residual = 0.0202679, Final residual = 3.39159e-06, No Iterations 3
ExecutionTime = 0.198005 s  ClockTime = 1 s

Courant Number mean: 0.0245427 max: 0.15125
Time = 0.42s

smoothSolver:  Solving for Ux, Initial residual = 0.00443245, Final residual = 9.99913e-07, No Iterations 3
smoothSolver:  Solving for Uy, Initial residual = 0.00588339, Final residual = 1.32685e-06, No Iterations 3
GAMG:  Solving for p, Initial residual = 0.00792121, Final residual = 0.000290778, No Iterations 2
time step continuity errors : sum local = 1.73701e-07, global = -7.22335e-20
GAMG:  Solving for p, Initial residual = 0.000442537, Final residual = 9.58789e-07, No Iterations 6
time step continuity errors : sum local = 6.46029e-10, global = 2.55651e-20, cumulative = -1.96501e-19
smoothSolver:  Solving for epsilon, Initial residual = 0.00949953, Final residual = 8.98301e-07, No Iterations 3
smoothSolver:  Solving for k, Initial residual = 0.0198612, Final residual = 3.31075e-06, No Iterations 3
ExecutionTime = 0.199004 s  ClockTime = 1 s

Courant Number mean: 0.0247504 max: 0.152279
Time = 0.425s

smoothSolver:  Solving for Ux, Initial residual = 0.00437201, Final residual = 9.85829e-07, No Iterations 3
smoothSolver:  Solving for Uy, Initial residual = 0.00582965, Final residual = 1.31031e-06, No Iterations 3
GAMG:  Solving for p, Initial residual = 0.00822625, Final residual = 0.000290616, No Iterations 2
time step continuity errors : sum local = 1.7472e-07, global = 7.17993e-20
GAMG:  Solving for p, Initial residual = 0.000437912, Final residual = 4.59733e-07, No Iterations 7
time step continuity errors : sum local = 3.13768e-10, global = 1.27179e-19, cumulative = -6.93223e-20
smoothSolver:  Solving for epsilon, Initial residual = 0.00931522, Final residual = 8.7916e-07, No Iterations 3
smoothSolver:  Solving for k, Initial residual = 0.0194651, Final residual = 3.23297e-06, No Iterations 3
ExecutionTime = 0.199995 s  ClockTime = 1 s

Courant Number mean: 0.0249573 max: 0.153292
Time = 0.43s

smoothSolver:  Solving for Ux, Initial residual = 0.00431139, Final residual = 9.73356e-07, No Iterations 3
smoothSolver:  Solving for Uy, Initial residual = 0.00577754, Final residual = 1.30467e-06, No Iterations 3
GAMG:  Solving for p, Initial residual = 0.00836345, Final residual = 0.000291626, No Iterations 2
time step continuity errors : sum local = 1.77119e-07, global = -6.73118e-20
GAMG:  Solving for p, Initial residual = 0.000441458, Final residual = 9.19231e-07, No Iterations 6
time step continuity errors : sum local = 6.30126e-10, global = 6.97727e-20, cumulative = 4.50426e-22
smoothSolver:  Solving for epsilon, Initial residual = 0.0091445, Final residual = 8.59177e-07, No Iterations 3
smoothSolver:  Solving for k, Initial residual = 0.0190784, Final residual = 3.15578e-06, No Iterations 3
ExecutionTime = 0.200969 s  ClockTime = 1 s

Courant Number mean: 0.0251627 max: 0.154288
Time = 0.435s

[...]
GAMG:  Solving for p, Initial residual = 4.63248e-05, Final residual = 4.12834e-06, No Iterations 2
time step continuity errors : sum local = 6.8048e-09, global = 5.72409e-20
GAMG:  Solving for p, Initial residual = 4.00341e-06, Final residual = 3.66867e-07, No Iterations 2
time step continuity errors : sum local = 6.68008e-10, global = -4.35428e-19, cumulative = 1.11591e-17
smoothSolver:  Solving for epsilon, Initial residual = 7.18738e-05, Final residual = 4.36976e-06, No Iterations 1
smoothSolver:  Solving for k, Initial residual = 0.000137419, Final residual = 8.85436e-06, No Iterations 1
ExecutionTime = 2.06323 s  ClockTime = 3 s

Courant Number mean: 0.122625 max: 0.251657
Time = 9.9s

smoothSolver:  Solving for Ux, Initial residual = 3.45847e-05, Final residual = 1.78161e-06, No Iterations 1
smoothSolver:  Solving for Uy, Initial residual = 3.33239e-05, Final residual = 1.76503e-06, No Iterations 1
GAMG:  Solving for p, Initial residual = 4.62101e-05, Final residual = 4.12186e-06, No Iterations 2
time step continuity errors : sum local = 6.79395e-09, global = -4.30134e-20
GAMG:  Solving for p, Initial residual = 3.99787e-06, Final residual = 3.66324e-07, No Iterations 2
time step continuity errors : sum local = 6.67e-10, global = -2.05472e-19, cumulative = 1.09537e-17
smoothSolver:  Solving for epsilon, Initial residual = 7.17295e-05, Final residual = 4.35396e-06, No Iterations 1
smoothSolver:  Solving for k, Initial residual = 0.000137226, Final residual = 8.82496e-06, No Iterations 1
ExecutionTime = 2.06414 s  ClockTime = 3 s

Courant Number mean: 0.122633 max: 0.251662
Time = 9.905s

smoothSolver:  Solving for Ux, Initial residual = 3.45196e-05, Final residual = 1.77878e-06, No Iterations 1
smoothSolver:  Solving for Uy, Initial residual = 3.32585e-05, Final residual = 1.76199e-06, No Iterations 1
GAMG:  Solving for p, Initial residual = 4.60954e-05, Final residual = 4.11536e-06, No Iterations 2
time step continuity errors : sum local = 6.78306e-09, global = -3.80834e-19
GAMG:  Solving for p, Initial residual = 3.9923e-06, Final residual = 3.65779e-07, No Iterations 2
time step continuity errors : sum local = 6.65986e-10, global = 4.48663e-19, cumulative = 1.14023e-17
smoothSolver:  Solving for epsilon, Initial residual = 7.15855e-05, Final residual = 4.33823e-06, No Iterations 1
smoothSolver:  Solving for k, Initial residual = 0.000137033, Final residual = 8.7956e-06, No Iterations 1
ExecutionTime = 2.06504 s  ClockTime = 3 s

Courant Number mean: 0.122642 max: 0.251667
Time = 9.91s

smoothSolver:  Solving for Ux, Initial residual = 3.44544e-05, Final residual = 1.77594e-06, No Iterations 1
smoothSolver:  Solving for Uy, Initial residual = 3.31931e-05, Final residual = 1.75896e-06, No Iterations 1
GAMG:  Solving for p, Initial residual = 4.59833e-05, Final residual = 4.10884e-06, No Iterations 2
time step continuity errors : sum local = 6.77215e-09, global = -7.37845e-20
GAMG:  Solving for p, Initial residual = 3.98661e-06, Final residual = 3.65231e-07, No Iterations 2
time step continuity errors : sum local = 6.64968e-10, global = -9.26442e-20, cumulative = 1.13097e-17
smoothSolver:  Solving for epsilon, Initial residual = 7.1442e-05, Final residual = 4.32258e-06, No Iterations 1
smoothSolver:  Solving for k, Initial residual = 0.00013684, Final residual = 8.76624e-06, No Iterations 1
ExecutionTime = 2.06598 s  ClockTime = 3 s

Courant Number mean: 0.12265 max: 0.251672
Time = 9.915s

smoothSolver:  Solving for Ux, Initial residual = 3.43891e-05, Final residual = 1.77311e-06, No Iterations 1
smoothSolver:  Solving for Uy, Initial residual = 3.31279e-05, Final residual = 1.75594e-06, No Iterations 1
GAMG:  Solving for p, Initial residual = 4.58705e-05, Final residual = 4.1023e-06, No Iterations 2
time step continuity errors : sum local = 6.76121e-09, global = -1.49554e-19
GAMG:  Solving for p, Initial residual = 3.98086e-06, Final residual = 3.6468e-07, No Iterations 2
time step continuity errors : sum local = 6.63946e-10, global = 4.04988e-19, cumulative = 1.17147e-17
smoothSolver:  Solving for epsilon, Initial residual = 7.12992e-05, Final residual = 4.30709e-06, No Iterations 1
smoothSolver:  Solving for k, Initial residual = 0.000136656, Final residual = 8.73689e-06, No Iterations 1
ExecutionTime = 2.067 s  ClockTime = 3 s

Courant Number mean: 0.122658 max: 0.251677
Time = 9.92s

smoothSolver:  Solving for Ux, Initial residual = 3.43237e-05, Final residual = 1.77027e-06, No Iterations 1
smoothSolver:  Solving for Uy, Initial residual = 3.30633e-05, Final residual = 1.75292e-06, No Iterations 1
GAMG:  Solving for p, Initial residual = 4.57572e-05, Final residual = 4.09575e-06, No Iterations 2
time step continuity errors : sum local = 6.75024e-09, global = -2.66683e-19
GAMG:  Solving for p, Initial residual = 3.97515e-06, Final residual = 3.64128e-07, No Iterations 2
time step continuity errors : sum local = 6.6292e-10, global = -3.80503e-20, cumulative = 1.16766e-17
smoothSolver:  Solving for epsilon, Initial residual = 7.11567e-05, Final residual = 4.29174e-06, No Iterations 1
smoothSolver:  Solving for k, Initial residual = 0.000136472, Final residual = 8.70753e-06, No Iterations 1
ExecutionTime = 2.068 s  ClockTime = 3 s

Courant Number mean: 0.122666 max: 0.251682
Time = 9.925s

smoothSolver:  Solving for Ux, Initial residual = 3.42582e-05, Final residual = 1.76745e-06, No Iterations 1
smoothSolver:  Solving for Uy, Initial residual = 3.29989e-05, Final residual = 1.74992e-06, No Iterations 1
GAMG:  Solving for p, Initial residual = 4.56436e-05, Final residual = 4.08918e-06, No Iterations 2
time step continuity errors : sum local = 6.73924e-09, global = -5.26087e-19
GAMG:  Solving for p, Initial residual = 3.96942e-06, Final residual = 3.63573e-07, No Iterations 2
time step continuity errors : sum local = 6.6189e-10, global = 1.38305e-19, cumulative = 1.18149e-17
smoothSolver:  Solving for epsilon, Initial residual = 7.10143e-05, Final residual = 4.27644e-06, No Iterations 1
smoothSolver:  Solving for k, Initial residual = 0.00013629, Final residual = 8.67818e-06, No Iterations 1
ExecutionTime = 2.06893 s  ClockTime = 3 s

Courant Number mean: 0.122674 max: 0.251687
Time = 9.93s

smoothSolver:  Solving for Ux, Initial residual = 3.41927e-05, Final residual = 1.76462e-06, No Iterations 1
smoothSolver:  Solving for Uy, Initial residual = 3.29345e-05, Final residual = 1.74697e-06, No Iterations 1
GAMG:  Solving for p, Initial residual = 4.55298e-05, Final residual = 4.08259e-06, No Iterations 2
time step continuity errors : sum local = 6.72823e-09, global = 1.32349e-20
GAMG:  Solving for p, Initial residual = 3.96367e-06, Final residual = 3.63016e-07, No Iterations 2
time step continuity errors : sum local = 6.60858e-10, global = 7.64315e-20, cumulative = 1.18913e-17
smoothSolver:  Solving for epsilon, Initial residual = 7.08722e-05, Final residual = 4.26121e-06, No Iterations 1
smoothSolver:  Solving for k, Initial residual = 0.000136113, Final residual = 8.64883e-06, No Iterations 1
ExecutionTime = 2.06974 s  ClockTime = 3 s

Courant Number mean: 0.122682 max: 0.251692
Time = 9.935s

smoothSolver:  Solving for Ux, Initial residual = 3.41272e-05, Final residual = 1.7618e-06, No Iterations 1
smoothSolver:  Solving for Uy, Initial residual = 3.28703e-05, Final residual = 1.74402e-06, No Iterations 1
GAMG:  Solving for p, Initial residual = 4.54166e-05, Final residual = 4.076e-06, No Iterations 2
time step continuity errors : sum local = 6.71719e-09, global = 3.47747e-19
GAMG:  Solving for p, Initial residual = 3.9579e-06, Final residual = 3.62458e-07, No Iterations 2
time step continuity errors : sum local = 6.59822e-10, global = 4.18223e-19, cumulative = 1.23096e-17
smoothSolver:  Solving for epsilon, Initial residual = 7.0731e-05, Final residual = 4.24597e-06, No Iterations 1
smoothSolver:  Solving for k, Initial residual = 0.000135937, Final residual = 8.61948e-06, No Iterations 1
ExecutionTime = 2.07066 s  ClockTime = 3 s

Courant Number mean: 0.12269 max: 0.251697
Time = 9.94s

smoothSolver:  Solving for Ux, Initial residual = 3.40615e-05, Final residual = 1.75898e-06, No Iterations 1
smoothSolver:  Solving for Uy, Initial residual = 3.28062e-05, Final residual = 1.74108e-06, No Iterations 1
GAMG:  Solving for p, Initial residual = 4.53038e-05, Final residual = 4.06941e-06, No Iterations 2
time step continuity errors : sum local = 6.70617e-09, global = -1.23084e-19
GAMG:  Solving for p, Initial residual = 3.9521e-06, Final residual = 3.61899e-07, No Iterations 2
time step continuity errors : sum local = 6.58785e-10, global = -2.5808e-19, cumulative = 1.20515e-17
smoothSolver:  Solving for epsilon, Initial residual = 7.05905e-05, Final residual = 4.23086e-06, No Iterations 1
smoothSolver:  Solving for k, Initial residual = 0.000135761, Final residual = 8.59013e-06, No Iterations 1
ExecutionTime = 2.07159 s  ClockTime = 3 s

Courant Number mean: 0.122698 max: 0.251702
Time = 9.945s

smoothSolver:  Solving for Ux, Initial residual = 3.39959e-05, Final residual = 1.75616e-06, No Iterations 1
smoothSolver:  Solving for Uy, Initial residual = 3.27422e-05, Final residual = 1.73814e-06, No Iterations 1
GAMG:  Solving for p, Initial residual = 4.5197e-05, Final residual = 4.06284e-06, No Iterations 2
time step continuity errors : sum local = 6.69516e-09, global = 4.63883e-19
GAMG:  Solving for p, Initial residual = 3.94629e-06, Final residual = 3.61338e-07, No Iterations 2
time step continuity errors : sum local = 6.57745e-10, global = 2.46169e-19, cumulative = 1.22977e-17
smoothSolver:  Solving for epsilon, Initial residual = 7.04502e-05, Final residual = 4.21579e-06, No Iterations 1
smoothSolver:  Solving for k, Initial residual = 0.000135584, Final residual = 8.56086e-06, No Iterations 1
ExecutionTime = 2.07251 s  ClockTime = 3 s

Courant Number mean: 0.122706 max: 0.251707
Time = 9.95s

smoothSolver:  Solving for Ux, Initial residual = 3.39301e-05, Final residual = 1.75335e-06, No Iterations 1
smoothSolver:  Solving for Uy, Initial residual = 3.26784e-05, Final residual = 1.73521e-06, No Iterations 1
GAMG:  Solving for p, Initial residual = 4.51006e-05, Final residual = 4.05626e-06, No Iterations 2
time step continuity errors : sum local = 6.68414e-09, global = -7.61006e-21
GAMG:  Solving for p, Initial residual = 3.94045e-06, Final residual = 3.60776e-07, No Iterations 2
time step continuity errors : sum local = 6.56703e-10, global = 2.05141e-20, cumulative = 1.23182e-17
smoothSolver:  Solving for epsilon, Initial residual = 7.03103e-05, Final residual = 4.20078e-06, No Iterations 1
smoothSolver:  Solving for k, Initial residual = 0.000135406, Final residual = 8.53165e-06, No Iterations 1
ExecutionTime = 2.07342 s  ClockTime = 3 s

Courant Number mean: 0.122714 max: 0.251712
Time = 9.955s

smoothSolver:  Solving for Ux, Initial residual = 3.38643e-05, Final residual = 1.75055e-06, No Iterations 1
smoothSolver:  Solving for Uy, Initial residual = 3.26146e-05, Final residual = 1.73229e-06, No Iterations 1
GAMG:  Solving for p, Initial residual = 4.50043e-05, Final residual = 4.04967e-06, No Iterations 2
time step continuity errors : sum local = 6.67312e-09, global = -2.90837e-19
GAMG:  Solving for p, Initial residual = 3.93466e-06, Final residual = 3.60212e-07, No Iterations 2
time step continuity errors : sum local = 6.55659e-10, global = -1.40621e-19, cumulative = 1.21776e-17
smoothSolver:  Solving for epsilon, Initial residual = 7.01729e-05, Final residual = 4.18583e-06, No Iterations 1
smoothSolver:  Solving for k, Initial residual = 0.000135227, Final residual = 8.50245e-06, No Iterations 1
ExecutionTime = 2.07434 s  ClockTime = 3 s

Courant Number mean: 0.122722 max: 0.251717
Time = 9.96s

smoothSolver:  Solving for Ux, Initial residual = 3.37987e-05, Final residual = 1.74776e-06, No Iterations 1
smoothSolver:  Solving for Uy, Initial residual = 3.25509e-05, Final residual = 1.72939e-06, No Iterations 1
GAMG:  Solving for p, Initial residual = 4.49086e-05, Final residual = 4.04312e-06, No Iterations 2
time step continuity errors : sum local = 6.66214e-09, global = -6.92516e-19
GAMG:  Solving for p, Initial residual = 3.9289e-06, Final residual = 3.59647e-07, No Iterations 2
time step continuity errors : sum local = 6.54612e-10, global = 2.00178e-19, cumulative = 1.23777e-17
smoothSolver:  Solving for epsilon, Initial residual = 7.00357e-05, Final residual = 4.17093e-06, No Iterations 1
smoothSolver:  Solving for k, Initial residual = 0.000135048, Final residual = 8.47328e-06, No Iterations 1
ExecutionTime = 2.07524 s  ClockTime = 3 s

Courant Number mean: 0.12273 max: 0.251722
Time = 9.965s

smoothSolver:  Solving for Ux, Initial residual = 3.37331e-05, Final residual = 1.74498e-06, No Iterations 1
smoothSolver:  Solving for Uy, Initial residual = 3.24874e-05, Final residual = 1.72649e-06, No Iterations 1
GAMG:  Solving for p, Initial residual = 4.52243e-05, Final residual = 4.03055e-06, No Iterations 2
time step continuity errors : sum local = 6.64228e-09, global = -4.8539e-19
GAMG:  Solving for p, Initial residual = 3.91699e-06, Final residual = 3.58537e-07, No Iterations 2
time step continuity errors : sum local = 6.52603e-10, global = -2.44515e-19, cumulative = 1.21332e-17
smoothSolver:  Solving for epsilon, Initial residual = 6.98988e-05, Final residual = 4.15608e-06, No Iterations 1
smoothSolver:  Solving for k, Initial residual = 0.000134869, Final residual = 8.4441e-06, No Iterations 1
ExecutionTime = 2.07618 s  ClockTime = 3 s

Courant Number mean: 0.122738 max: 0.251727
Time = 9.97s

smoothSolver:  Solving for Ux, Initial residual = 3.36676e-05, Final residual = 1.74226e-06, No Iterations 1
smoothSolver:  Solving for Uy, Initial residual = 3.24219e-05, Final residual = 1.72344e-06, No Iterations 1
GAMG:  Solving for p, Initial residual = 4.55059e-05, Final residual = 4.01898e-06, No Iterations 2
time step continuity errors : sum local = 6.62383e-09, global = 1.26724e-19
GAMG:  Solving for p, Initial residual = 3.90709e-06, Final residual = 3.57448e-07, No Iterations 2
time step continuity errors : sum local = 6.50648e-10, global = 2.23339e-19, cumulative = 1.23566e-17
smoothSolver:  Solving for epsilon, Initial residual = 6.97621e-05, Final residual = 4.14127e-06, No Iterations 1
smoothSolver:  Solving for k, Initial residual = 0.000134691, Final residual = 8.41488e-06, No Iterations 1
ExecutionTime = 2.07707 s  ClockTime = 3 s

Courant Number mean: 0.122746 max: 0.251732
Time = 9.975s

smoothSolver:  Solving for Ux, Initial residual = 3.36021e-05, Final residual = 1.73957e-06, No Iterations 1
smoothSolver:  Solving for Uy, Initial residual = 3.23548e-05, Final residual = 1.72027e-06, No Iterations 1
GAMG:  Solving for p, Initial residual = 4.50348e-05, Final residual = 4.01881e-06, No Iterations 2
time step continuity errors : sum local = 6.62221e-09, global = -1.72054e-19
GAMG:  Solving for p, Initial residual = 3.90897e-06, Final residual = 3.5718e-07, No Iterations 2
time step continuity errors : sum local = 6.50167e-10, global = -2.19368e-19, cumulative = 1.21372e-17
smoothSolver:  Solving for epsilon, Initial residual = 6.96255e-05, Final residual = 4.12652e-06, No Iterations 1
smoothSolver:  Solving for k, Initial residual = 0.000134512, Final residual = 8.38566e-06, No Iterations 1
ExecutionTime = 2.07798 s  ClockTime = 3 s

Courant Number mean: 0.122754 max: 0.251737
Time = 9.98s

smoothSolver:  Solving for Ux, Initial residual = 3.35365e-05, Final residual = 1.73683e-06, No Iterations 1
smoothSolver:  Solving for Uy, Initial residual = 3.22901e-05, Final residual = 1.7173e-06, No Iterations 1
GAMG:  Solving for p, Initial residual = 4.4841e-05, Final residual = 4.01419e-06, No Iterations 2
time step continuity errors : sum local = 6.61419e-09, global = 5.36013e-20
GAMG:  Solving for p, Initial residual = 3.90659e-06, Final residual = 3.56669e-07, No Iterations 2
time step continuity errors : sum local = 6.49237e-10, global = -3.34512e-19, cumulative = 1.18027e-17
smoothSolver:  Solving for epsilon, Initial residual = 6.94891e-05, Final residual = 4.10219e-06, No Iterations 1
smoothSolver:  Solving for k, Initial residual = 0.000134332, Final residual = 8.35644e-06, No Iterations 1
ExecutionTime = 2.07892 s  ClockTime = 3 s

Courant Number mean: 0.122762 max: 0.251742
Time = 9.985s

smoothSolver:  Solving for Ux, Initial residual = 3.34708e-05, Final residual = 1.73406e-06, No Iterations 1
smoothSolver:  Solving for Uy, Initial residual = 3.22264e-05, Final residual = 1.71439e-06, No Iterations 1
GAMG:  Solving for p, Initial residual = 4.47181e-05, Final residual = 4.00805e-06, No Iterations 2
time step continuity errors : sum local = 6.60381e-09, global = -6.46193e-19
GAMG:  Solving for p, Initial residual = 3.90238e-06, Final residual = 3.56106e-07, No Iterations 2
time step continuity errors : sum local = 6.48202e-10, global = -1.26724e-19, cumulative = 1.16759e-17
smoothSolver:  Solving for epsilon, Initial residual = 6.93526e-05, Final residual = 4.08746e-06, No Iterations 1
smoothSolver:  Solving for k, Initial residual = 0.000134151, Final residual = 8.32722e-06, No Iterations 1
ExecutionTime = 2.07986 s  ClockTime = 3 s

Courant Number mean: 0.12277 max: 0.251746
Time = 9.99s

smoothSolver:  Solving for Ux, Initial residual = 3.3405e-05, Final residual = 1.73129e-06, No Iterations 1
smoothSolver:  Solving for Uy, Initial residual = 3.2163e-05, Final residual = 1.7115e-06, No Iterations 1
GAMG:  Solving for p, Initial residual = 4.46144e-05, Final residual = 4.00161e-06, No Iterations 2
time step continuity errors : sum local = 6.59298e-09, global = -5.32704e-20
GAMG:  Solving for p, Initial residual = 3.89751e-06, Final residual = 3.55532e-07, No Iterations 2
time step continuity errors : sum local = 6.47144e-10, global = 1.36319e-19, cumulative = 1.18123e-17
smoothSolver:  Solving for epsilon, Initial residual = 6.92162e-05, Final residual = 4.07276e-06, No Iterations 1
smoothSolver:  Solving for k, Initial residual = 0.000133979, Final residual = 8.29802e-06, No Iterations 1
ExecutionTime = 2.0808 s  ClockTime = 3 s

Courant Number mean: 0.122778 max: 0.251751
Time = 9.995s

smoothSolver:  Solving for Ux, Initial residual = 3.33393e-05, Final residual = 1.72853e-06, No Iterations 1
smoothSolver:  Solving for Uy, Initial residual = 3.20998e-05, Final residual = 1.70863e-06, No Iterations 1
GAMG:  Solving for p, Initial residual = 4.45161e-05, Final residual = 3.99509e-06, No Iterations 2
time step continuity errors : sum local = 6.58204e-09, global = -1.30033e-19
GAMG:  Solving for p, Initial residual = 3.89233e-06, Final residual = 3.54958e-07, No Iterations 2
time step continuity errors : sum local = 6.46084e-10, global = 2.1606e-19, cumulative = 1.20283e-17
smoothSolver:  Solving for epsilon, Initial residual = 6.908e-05, Final residual = 4.05811e-06, No Iterations 1
smoothSolver:  Solving for k, Initial residual = 0.000133807, Final residual = 8.26883e-06, No Iterations 1
ExecutionTime = 2.0818 s  ClockTime = 3 s

Courant Number mean: 0.122786 max: 0.251756
Time = 10s

smoothSolver:  Solving for Ux, Initial residual = 3.32735e-05, Final residual = 1.72577e-06, No Iterations 1
smoothSolver:  Solving for Uy, Initial residual = 3.20368e-05, Final residual = 1.70576e-06, No Iterations 1
GAMG:  Solving for p, Initial residual = 4.44198e-05, Final residual = 3.98854e-06, No Iterations 2
time step continuity errors : sum local = 6.57107e-09, global = -3.27564e-20
GAMG:  Solving for p, Initial residual = 3.88697e-06, Final residual = 3.54384e-07, No Iterations 2
time step continuity errors : sum local = 6.45025e-10, global = 1.44922e-19, cumulative = 1.21732e-17
smoothSolver:  Solving for epsilon, Initial residual = 6.89439e-05, Final residual = 4.04349e-06, No Iterations 1
smoothSolver:  Solving for k, Initial residual = 0.000133634, Final residual = 8.22366e-06, No Iterations 1
ExecutionTime = 2.08446 s  ClockTime = 3 s

End

