/*---------------------------------------------------------------------------*\
  =========                 |
  \\      /  F ield         | OpenFOAM: The Open Source CFD Toolbox
   \\    /   O peration     | Website:  https://openfoam.org
    \\  /    A nd           | Version:  13
     \\/     M anipulation  |
\*---------------------------------------------------------------------------*/
Build  : 13-65eda17ad4ca
Exec   : foamRun
Date   : Oct 20 2025
Time   : 23:56:10
Host   : "LAPTOP-416UROR2"
PID    : 6978
I/O    : uncollated
Case   : /home/adisr/OpenFOAM-learning1/incompressibleFlow/01-cavity/first_change
nProcs : 1
sigFpe : Enabling floating point exception trapping (FOAM_SIGFPE).
fileModificationChecking : Monitoring run-time modified files using timeStampMaster (fileModificationSkew 10)
allowSystemOperations : Allowing user-supplied system call operations

// * * * * * * * * * * * * * * * * * * * * * * * * * * * * * * * * * * * * * //
Create time

Create mesh for time = 0

Selecting solver incompressibleFluid
Selecting viscosity model constant
Selecting turbulence model type RAS
    Selecting RAS turbulence model kEpsilon
No MRF models present

Courant Number mean: 0 max: 0

PIMPLE: No convergence criteria found


PIMPLE: Operating solver in transient mode with 1 outer corrector
PIMPLE: Operating solver in PISO mode



Starting time loop

Courant Number mean: 0 max: 0
Time = 0.005s

smoothSolver:  Solving for Ux, Initial residual = 1, Final residual = 5.18454e-06, No Iterations 8
smoothSolver:  Solving for Uy, Initial residual = 1, Final residual = 2.87978e-06, No Iterations 8
GAMG:  Solving for p, Initial residual = 1, Final residual = 0.0478024, No Iterations 2
time step continuity errors : sum local = 1.44355e-05, global = 6.78288e-21
GAMG:  Solving for p, Initial residual = 0.0924373, Final residual = 7.01964e-07, No Iterations 12
time step continuity errors : sum local = 4.34645e-10, global = -7.49253e-21, cumulative = -7.49253e-21
smoothSolver:  Solving for epsilon, Initial residual = 0.0306079, Final residual = 2.56404e-06, No Iterations 5
smoothSolver:  Solving for k, Initial residual = 1, Final residual = 3.78088e-06, No Iterations 8
ExecutionTime = 0.129948 s  ClockTime = 1 s

Courant Number mean: 0.0019626 max: 0.0459342
Time = 0.01s

smoothSolver:  Solving for Ux, Initial residual = 0.345775, Final residual = 3.53932e-06, No Iterations 7
smoothSolver:  Solving for Uy, Initial residual = 0.297276, Final residual = 4.10776e-06, No Iterations 7
GAMG:  Solving for p, Initial residual = 0.465745, Final residual = 0.0213116, No Iterations 2
time step continuity errors : sum local = 1.09518e-05, global = 7.11375e-21
GAMG:  Solving for p, Initial residual = 0.0630776, Final residual = 8.28512e-07, No Iterations 10
time step continuity errors : sum local = 3.00778e-10, global = 4.24285e-21, cumulative = -3.24967e-21
smoothSolver:  Solving for epsilon, Initial residual = 0.0142828, Final residual = 8.06026e-06, No Iterations 4
smoothSolver:  Solving for k, Initial residual = 0.625062, Final residual = 7.95873e-06, No Iterations 7
ExecutionTime = 0.132737 s  ClockTime = 1 s

Courant Number mean: 0.00369604 max: 0.0658163
Time = 0.015s

smoothSolver:  Solving for Ux, Initial residual = 0.182499, Final residual = 8.53563e-06, No Iterations 6
smoothSolver:  Solving for Uy, Initial residual = 0.172801, Final residual = 2.74516e-06, No Iterations 7
GAMG:  Solving for p, Initial residual = 0.278655, Final residual = 0.00894818, No Iterations 2
time step continuity errors : sum local = 2.51769e-06, global = 4.05319e-21
GAMG:  Solving for p, Initial residual = 0.021344, Final residual = 5.22383e-07, No Iterations 10
time step continuity errors : sum local = 1.24296e-10, global = 1.5382e-20, cumulative = 1.21323e-20
smoothSolver:  Solving for epsilon, Initial residual = 0.0120785, Final residual = 7.45296e-06, No Iterations 4
smoothSolver:  Solving for k, Initial residual = 0.433878, Final residual = 5.44716e-06, No Iterations 7
ExecutionTime = 0.135438 s  ClockTime = 1 s

Courant Number mean: 0.00535997 max: 0.0800733
Time = 0.02s

smoothSolver:  Solving for Ux, Initial residual = 0.130384, Final residual = 6.35475e-06, No Iterations 6
smoothSolver:  Solving for Uy, Initial residual = 0.129283, Final residual = 9.26418e-06, No Iterations 6
GAMG:  Solving for p, Initial residual = 0.137062, Final residual = 0.00275466, No Iterations 2
time step continuity errors : sum local = 5.85915e-07, global = -4.6167e-21
GAMG:  Solving for p, Initial residual = 0.00837387, Final residual = 6.64507e-07, No Iterations 9
time step continuity errors : sum local = 1.4023e-10, global = 3.68496e-20, cumulative = 4.89819e-20
smoothSolver:  Solving for epsilon, Initial residual = 0.010493, Final residual = 7.14409e-06, No Iterations 4
smoothSolver:  Solving for k, Initial residual = 0.292322, Final residual = 3.64473e-06, No Iterations 7
ExecutionTime = 0.138291 s  ClockTime = 1 s

Courant Number mean: 0.00699012 max: 0.101869
Time = 0.025s

smoothSolver:  Solving for Ux, Initial residual = 0.100315, Final residual = 4.89034e-06, No Iterations 6
smoothSolver:  Solving for Uy, Initial residual = 0.101373, Final residual = 7.13915e-06, No Iterations 6
GAMG:  Solving for p, Initial residual = 0.109274, Final residual = 0.00290473, No Iterations 2
time step continuity errors : sum local = 5.53693e-07, global = 5.25105e-20
GAMG:  Solving for p, Initial residual = 0.00736093, Final residual = 5.1086e-07, No Iterations 8
time step continuity errors : sum local = 1.02347e-10, global = 2.46332e-20, cumulative = 7.36151e-20
smoothSolver:  Solving for epsilon, Initial residual = 0.00932339, Final residual = 6.9961e-06, No Iterations 4
smoothSolver:  Solving for k, Initial residual = 0.219451, Final residual = 2.73008e-06, No Iterations 7
ExecutionTime = 0.140865 s  ClockTime = 1 s

Courant Number mean: 0.00858003 max: 0.124633
Time = 0.03s

smoothSolver:  Solving for Ux, Initial residual = 0.0814047, Final residual = 3.99384e-06, No Iterations 6
smoothSolver:  Solving for Uy, Initial residual = 0.0836083, Final residual = 5.78292e-06, No Iterations 6
GAMG:  Solving for p, Initial residual = 0.0834168, Final residual = 0.0021718, No Iterations 2
time step continuity errors : sum local = 4.14049e-07, global = 2.65525e-20
GAMG:  Solving for p, Initial residual = 0.00608065, Final residual = 5.89287e-07, No Iterations 8
time step continuity errors : sum local = 1.20729e-10, global = 3.40275e-21, cumulative = 7.70179e-20
smoothSolver:  Solving for epsilon, Initial residual = 0.00845013, Final residual = 6.96124e-06, No Iterations 4
smoothSolver:  Solving for k, Initial residual = 0.174671, Final residual = 2.17452e-06, No Iterations 7
ExecutionTime = 0.143431 s  ClockTime = 1 s

Courant Number mean: 0.0101367 max: 0.146413
Time = 0.035s

smoothSolver:  Solving for Ux, Initial residual = 0.0682522, Final residual = 3.36606e-06, No Iterations 6
smoothSolver:  Solving for Uy, Initial residual = 0.0710107, Final residual = 4.83464e-06, No Iterations 6
GAMG:  Solving for p, Initial residual = 0.0820231, Final residual = 0.00226764, No Iterations 2
time step continuity errors : sum local = 4.42581e-07, global = -5.95156e-20
GAMG:  Solving for p, Initial residual = 0.00570957, Final residual = 7.35382e-07, No Iterations 8
time step continuity errors : sum local = 1.55017e-10, global = 2.64155e-20, cumulative = 1.03433e-19
smoothSolver:  Solving for epsilon, Initial residual = 0.00843698, Final residual = 7.04998e-06, No Iterations 4
smoothSolver:  Solving for k, Initial residual = 0.145237, Final residual = 8.41643e-06, No Iterations 6
ExecutionTime = 0.146019 s  ClockTime = 1 s

Courant Number mean: 0.0116564 max: 0.167293
Time = 0.04s

smoothSolver:  Solving for Ux, Initial residual = 0.0586276, Final residual = 2.90759e-06, No Iterations 6
smoothSolver:  Solving for Uy, Initial residual = 0.0617763, Final residual = 4.13746e-06, No Iterations 6
GAMG:  Solving for p, Initial residual = 0.0628877, Final residual = 0.00171737, No Iterations 2
time step continuity errors : sum local = 3.51369e-07, global = -9.9241e-20
GAMG:  Solving for p, Initial residual = 0.00552269, Final residual = 6.97848e-07, No Iterations 8
time step continuity errors : sum local = 1.56137e-10, global = 7.28177e-21, cumulative = 1.10715e-19
smoothSolver:  Solving for epsilon, Initial residual = 0.00891272, Final residual = 7.20412e-06, No Iterations 4
smoothSolver:  Solving for k, Initial residual = 0.125099, Final residual = 7.20087e-06, No Iterations 6
ExecutionTime = 0.148626 s  ClockTime = 1 s

Courant Number mean: 0.0131391 max: 0.18733
Time = 0.045s

smoothSolver:  Solving for Ux, Initial residual = 0.0513296, Final residual = 2.55944e-06, No Iterations 6
smoothSolver:  Solving for Uy, Initial residual = 0.0546148, Final residual = 3.60285e-06, No Iterations 6
GAMG:  Solving for p, Initial residual = 0.0573833, Final residual = 0.00168269, No Iterations 2
time step continuity errors : sum local = 3.65937e-07, global = -4.56087e-20
GAMG:  Solving for p, Initial residual = 0.00537419, Final residual = 7.29145e-07, No Iterations 8
time step continuity errors : sum local = 1.73721e-10, global = -1.38811e-21, cumulative = 1.09327e-19
smoothSolver:  Solving for epsilon, Initial residual = 0.00947308, Final residual = 7.37147e-06, No Iterations 4
smoothSolver:  Solving for k, Initial residual = 0.109991, Final residual = 6.29375e-06, No Iterations 6
ExecutionTime = 0.15119 s  ClockTime = 1 s

Courant Number mean: 0.014588 max: 0.206571
Time = 0.05s

smoothSolver:  Solving for Ux, Initial residual = 0.0456295, Final residual = 2.28561e-06, No Iterations 6
smoothSolver:  Solving for Uy, Initial residual = 0.0488682, Final residual = 3.17993e-06, No Iterations 6
GAMG:  Solving for p, Initial residual = 0.0534438, Final residual = 0.00162819, No Iterations 2
time step continuity errors : sum local = 3.78627e-07, global = -7.62712e-20
GAMG:  Solving for p, Initial residual = 0.00521423, Final residual = 7.40593e-07, No Iterations 8
time step continuity errors : sum local = 1.88955e-10, global = -1.14409e-20, cumulative = 9.78861e-20
smoothSolver:  Solving for epsilon, Initial residual = 0.0101844, Final residual = 7.53517e-06, No Iterations 4
smoothSolver:  Solving for k, Initial residual = 0.0982101, Final residual = 5.58781e-06, No Iterations 6
ExecutionTime = 0.153762 s  ClockTime = 1 s

Courant Number mean: 0.0160022 max: 0.225056
Time = 0.055s

smoothSolver:  Solving for Ux, Initial residual = 0.0410157, Final residual = 9.6139e-06, No Iterations 5
smoothSolver:  Solving for Uy, Initial residual = 0.0441673, Final residual = 2.84053e-06, No Iterations 6
GAMG:  Solving for p, Initial residual = 0.0511916, Final residual = 0.00156118, No Iterations 2
time step continuity errors : sum local = 3.89323e-07, global = 8.32867e-21
GAMG:  Solving for p, Initial residual = 0.00510501, Final residual = 7.2137e-07, No Iterations 8
time step continuity errors : sum local = 1.97863e-10, global = 7.38129e-21, cumulative = 1.05267e-19
smoothSolver:  Solving for epsilon, Initial residual = 0.0109133, Final residual = 7.69595e-06, No Iterations 4
smoothSolver:  Solving for k, Initial residual = 0.0887456, Final residual = 5.02801e-06, No Iterations 6
ExecutionTime = 0.156441 s  ClockTime = 1 s

Courant Number mean: 0.0173833 max: 0.24283
Time = 0.06s

smoothSolver:  Solving for Ux, Initial residual = 0.0372001, Final residual = 8.8073e-06, No Iterations 5
smoothSolver:  Solving for Uy, Initial residual = 0.040251, Final residual = 2.56254e-06, No Iterations 6
GAMG:  Solving for p, Initial residual = 0.0509629, Final residual = 0.00151054, No Iterations 2
time step continuity errors : sum local = 4.04654e-07, global = -4.91759e-20
GAMG:  Solving for p, Initial residual = 0.00497835, Final residual = 7.09169e-07, No Iterations 8
time step continuity errors : sum local = 2.09256e-10, global = -6.97649e-20, cumulative = 3.55024e-20
smoothSolver:  Solving for epsilon, Initial residual = 0.0116379, Final residual = 7.84406e-06, No Iterations 4
smoothSolver:  Solving for k, Initial residual = 0.0809639, Final residual = 4.56924e-06, No Iterations 6
ExecutionTime = 0.159044 s  ClockTime = 1 s

Courant Number mean: 0.0187318 max: 0.259921
Time = 0.065s

smoothSolver:  Solving for Ux, Initial residual = 0.0339857, Final residual = 8.15693e-06, No Iterations 5
smoothSolver:  Solving for Uy, Initial residual = 0.0369404, Final residual = 2.32962e-06, No Iterations 6
GAMG:  Solving for p, Initial residual = 0.0521031, Final residual = 0.00146994, No Iterations 2
time step continuity errors : sum local = 4.25726e-07, global = 9.07322e-21
GAMG:  Solving for p, Initial residual = 0.00486037, Final residual = 6.99271e-07, No Iterations 8
time step continuity errors : sum local = 2.24061e-10, global = 7.3981e-21, cumulative = 4.29005e-20
smoothSolver:  Solving for epsilon, Initial residual = 0.012342, Final residual = 7.98126e-06, No Iterations 4
smoothSolver:  Solving for k, Initial residual = 0.0744263, Final residual = 4.19143e-06, No Iterations 6
ExecutionTime = 0.161905 s  ClockTime = 1 s

Courant Number mean: 0.0200513 max: 0.276342
Time = 0.07s

smoothSolver:  Solving for Ux, Initial residual = 0.0312528, Final residual = 7.60534e-06, No Iterations 5
smoothSolver:  Solving for Uy, Initial residual = 0.0340991, Final residual = 9.94476e-06, No Iterations 5
GAMG:  Solving for p, Initial residual = 0.05351, Final residual = 0.0014333, No Iterations 2
time step continuity errors : sum local = 4.52141e-07, global = -1.64402e-20
GAMG:  Solving for p, Initial residual = 0.00469353, Final residual = 6.59563e-07, No Iterations 8
time step continuity errors : sum local = 2.30874e-10, global = -6.77351e-20, cumulative = -2.48346e-20
smoothSolver:  Solving for epsilon, Initial residual = 0.0130108, Final residual = 8.10105e-06, No Iterations 4
smoothSolver:  Solving for k, Initial residual = 0.0687227, Final residual = 3.86541e-06, No Iterations 6
ExecutionTime = 0.164511 s  ClockTime = 1 s

Courant Number mean: 0.0213385 max: 0.292125
Time = 0.075s

smoothSolver:  Solving for Ux, Initial residual = 0.0288847, Final residual = 7.15827e-06, No Iterations 5
smoothSolver:  Solving for Uy, Initial residual = 0.0316259, Final residual = 9.16034e-06, No Iterations 5
GAMG:  Solving for p, Initial residual = 0.0440105, Final residual = 0.00133491, No Iterations 2
time step continuity errors : sum local = 4.5511e-07, global = 9.47329e-20
GAMG:  Solving for p, Initial residual = 0.00410606, Final residual = 5.65022e-07, No Iterations 8
time step continuity errors : sum local = 2.11422e-10, global = 1.46734e-20, cumulative = -1.01612e-20
smoothSolver:  Solving for epsilon, Initial residual = 0.0136424, Final residual = 8.19685e-06, No Iterations 4
smoothSolver:  Solving for k, Initial residual = 0.0638978, Final residual = 3.58986e-06, No Iterations 6
ExecutionTime = 0.167065 s  ClockTime = 1 s

Courant Number mean: 0.0226005 max: 0.3073
Time = 0.08s

smoothSolver:  Solving for Ux, Initial residual = 0.0268381, Final residual = 6.83142e-06, No Iterations 5
smoothSolver:  Solving for Uy, Initial residual = 0.0294361, Final residual = 8.48587e-06, No Iterations 5
GAMG:  Solving for p, Initial residual = 0.0375227, Final residual = 0.0014289, No Iterations 2
time step continuity errors : sum local = 5.16003e-07, global = -4.39595e-20
GAMG:  Solving for p, Initial residual = 0.00457762, Final residual = 6.87346e-07, No Iterations 8
time step continuity errors : sum local = 2.70553e-10, global = -1.03401e-19, cumulative = -1.13562e-19
smoothSolver:  Solving for epsilon, Initial residual = 0.0142506, Final residual = 8.26817e-06, No Iterations 4
smoothSolver:  Solving for k, Initial residual = 0.0598794, Final residual = 3.35715e-06, No Iterations 6
ExecutionTime = 0.169703 s  ClockTime = 1 s

Courant Number mean: 0.0238413 max: 0.321868
Time = 0.085s

smoothSolver:  Solving for Ux, Initial residual = 0.0250401, Final residual = 6.52337e-06, No Iterations 5
smoothSolver:  Solving for Uy, Initial residual = 0.0275449, Final residual = 7.884e-06, No Iterations 5
GAMG:  Solving for p, Initial residual = 0.0372027, Final residual = 0.00133576, No Iterations 2
time step continuity errors : sum local = 5.09254e-07, global = -4.52675e-20
GAMG:  Solving for p, Initial residual = 0.00428923, Final residual = 5.92772e-07, No Iterations 8
time step continuity errors : sum local = 2.46847e-10, global = -8.92386e-21, cumulative = -1.22486e-19
smoothSolver:  Solving for epsilon, Initial residual = 0.0148308, Final residual = 8.32789e-06, No Iterations 4
smoothSolver:  Solving for k, Initial residual = 0.0563785, Final residual = 3.15073e-06, No Iterations 6
ExecutionTime = 0.172562 s  ClockTime = 1 s

Courant Number mean: 0.0250677 max: 0.33586
Time = 0.09s

smoothSolver:  Solving for Ux, Initial residual = 0.0234283, Final residual = 6.28089e-06, No Iterations 5
smoothSolver:  Solving for Uy, Initial residual = 0.0258605, Final residual = 7.3567e-06, No Iterations 5
GAMG:  Solving for p, Initial residual = 0.0373311, Final residual = 0.00133668, No Iterations 2
time step continuity errors : sum local = 5.38589e-07, global = 8.77328e-20
GAMG:  Solving for p, Initial residual = 0.00431062, Final residual = 6.03305e-07, No Iterations 8
time step continuity errors : sum local = 2.65527e-10, global = -3.86319e-20, cumulative = -1.61118e-19
smoothSolver:  Solving for epsilon, Initial residual = 0.0153615, Final residual = 8.3597e-06, No Iterations 4
smoothSolver:  Solving for k, Initial residual = 0.0532867, Final residual = 2.96784e-06, No Iterations 6
ExecutionTime = 0.175137 s  ClockTime = 1 s

Courant Number mean: 0.0262748 max: 0.349299
Time = 0.095s

smoothSolver:  Solving for Ux, Initial residual = 0.0219706, Final residual = 6.14216e-06, No Iterations 5
smoothSolver:  Solving for Uy, Initial residual = 0.0243631, Final residual = 6.89061e-06, No Iterations 5
GAMG:  Solving for p, Initial residual = 0.036879, Final residual = 0.00129532, No Iterations 2
time step continuity errors : sum local = 5.50613e-07, global = 7.92025e-20
GAMG:  Solving for p, Initial residual = 0.00421706, Final residual = 5.86352e-07, No Iterations 8
time step continuity errors : sum local = 2.71926e-10, global = 1.7513e-21, cumulative = -1.59366e-19
smoothSolver:  Solving for epsilon, Initial residual = 0.0158402, Final residual = 8.35712e-06, No Iterations 4
smoothSolver:  Solving for k, Initial residual = 0.0505192, Final residual = 2.80256e-06, No Iterations 6
ExecutionTime = 0.177687 s  ClockTime = 1 s

Courant Number mean: 0.027458 max: 0.362181
Time = 0.1s

smoothSolver:  Solving for Ux, Initial residual = 0.0206664, Final residual = 5.93619e-06, No Iterations 5
smoothSolver:  Solving for Uy, Initial residual = 0.0230181, Final residual = 6.4715e-06, No Iterations 5
GAMG:  Solving for p, Initial residual = 0.0364019, Final residual = 0.001313, No Iterations 2
time step continuity errors : sum local = 5.86398e-07, global = 8.86893e-20
GAMG:  Solving for p, Initial residual = 0.0043467, Final residual = 6.33417e-07, No Iterations 8
time step continuity errors : sum local = 3.07591e-10, global = 1.17571e-19, cumulative = -4.17956e-20
smoothSolver:  Solving for epsilon, Initial residual = 0.0162608, Final residual = 8.32206e-06, No Iterations 4
smoothSolver:  Solving for k, Initial residual = 0.0480192, Final residual = 2.65841e-06, No Iterations 6
ExecutionTime = 0.180359 s  ClockTime = 1 s

Courant Number mean: 0.0286188 max: 0.37456
Time = 0.105s

smoothSolver:  Solving for Ux, Initial residual = 0.019508, Final residual = 5.81954e-06, No Iterations 5
smoothSolver:  Solving for Uy, Initial residual = 0.0218233, Final residual = 6.08927e-06, No Iterations 5
GAMG:  Solving for p, Initial residual = 0.033844, Final residual = 0.00127935, No Iterations 2
time step continuity errors : sum local = 5.97846e-07, global = -7.74861e-20
GAMG:  Solving for p, Initial residual = 0.00420193, Final residual = 5.99013e-07, No Iterations 8
time step continuity errors : sum local = 3.04061e-10, global = 3.62447e-20, cumulative = -5.55092e-21
smoothSolver:  Solving for epsilon, Initial residual = 0.0166089, Final residual = 8.25035e-06, No Iterations 4
smoothSolver:  Solving for k, Initial residual = 0.0457852, Final residual = 2.52951e-06, No Iterations 6
ExecutionTime = 0.182888 s  ClockTime = 1 s

Courant Number mean: 0.0297565 max: 0.386425
Time = 0.11s

smoothSolver:  Solving for Ux, Initial residual = 0.0184872, Final residual = 5.71648e-06, No Iterations 5
smoothSolver:  Solving for Uy, Initial residual = 0.0207527, Final residual = 5.74772e-06, No Iterations 5
GAMG:  Solving for p, Initial residual = 0.0357045, Final residual = 0.00121656, No Iterations 2
time step continuity errors : sum local = 5.91139e-07, global = -1.34375e-19
GAMG:  Solving for p, Initial residual = 0.00392943, Final residual = 5.621e-07, No Iterations 8
time step continuity errors : sum local = 2.94863e-10, global = -3.43054e-20, cumulative = -3.98563e-20
smoothSolver:  Solving for epsilon, Initial residual = 0.0168978, Final residual = 8.15449e-06, No Iterations 4
smoothSolver:  Solving for k, Initial residual = 0.0439017, Final residual = 2.42209e-06, No Iterations 6
ExecutionTime = 0.185588 s  ClockTime = 1 s

Courant Number mean: 0.0308689 max: 0.397801
Time = 0.115s

smoothSolver:  Solving for Ux, Initial residual = 0.0175631, Final residual = 5.56752e-06, No Iterations 5
smoothSolver:  Solving for Uy, Initial residual = 0.0197742, Final residual = 5.43044e-06, No Iterations 5
GAMG:  Solving for p, Initial residual = 0.0336492, Final residual = 0.00121476, No Iterations 2
time step continuity errors : sum local = 6.15169e-07, global = -9.7173e-20
GAMG:  Solving for p, Initial residual = 0.00401105, Final residual = 6.02025e-07, No Iterations 8
time step continuity errors : sum local = 3.30683e-10, global = 5.60971e-20, cumulative = 1.62408e-20
smoothSolver:  Solving for epsilon, Initial residual = 0.0170968, Final residual = 8.0217e-06, No Iterations 4
smoothSolver:  Solving for k, Initial residual = 0.0423031, Final residual = 2.32783e-06, No Iterations 6
ExecutionTime = 0.188281 s  ClockTime = 1 s

Courant Number mean: 0.0319602 max: 0.408722
Time = 0.12s

smoothSolver:  Solving for Ux, Initial residual = 0.016695, Final residual = 5.55549e-06, No Iterations 5
smoothSolver:  Solving for Uy, Initial residual = 0.0189062, Final residual = 5.15207e-06, No Iterations 5
GAMG:  Solving for p, Initial residual = 0.0299485, Final residual = 0.00116882, No Iterations 2
time step continuity errors : sum local = 6.18615e-07, global = -9.83208e-20
GAMG:  Solving for p, Initial residual = 0.00380616, Final residual = 6.01323e-07, No Iterations 8
time step continuity errors : sum local = 3.45198e-10, global = -3.26478e-21, cumulative = 1.2976e-20
smoothSolver:  Solving for epsilon, Initial residual = 0.0172237, Final residual = 7.85655e-06, No Iterations 4
smoothSolver:  Solving for k, Initial residual = 0.0408147, Final residual = 2.24314e-06, No Iterations 6
ExecutionTime = 0.190876 s  ClockTime = 1 s

Courant Number mean: 0.0330274 max: 0.419177
Time = 0.125s

smoothSolver:  Solving for Ux, Initial residual = 0.0159192, Final residual = 5.34633e-06, No Iterations 5
smoothSolver:  Solving for Uy, Initial residual = 0.0180805, Final residual = 4.89875e-06, No Iterations 5
GAMG:  Solving for p, Initial residual = 0.0330043, Final residual = 0.0011514, No Iterations 2
time step continuity errors : sum local = 6.37537e-07, global = -6.26072e-20
GAMG:  Solving for p, Initial residual = 0.00392204, Final residual = 6.47434e-07, No Iterations 8
time step continuity errors : sum local = 3.89334e-10, global = -5.44007e-20, cumulative = -4.14247e-20
smoothSolver:  Solving for epsilon, Initial residual = 0.0172832, Final residual = 7.67548e-06, No Iterations 4
smoothSolver:  Solving for k, Initial residual = 0.0394624, Final residual = 2.1665e-06, No Iterations 6
ExecutionTime = 0.19352 s  ClockTime = 1 s

Courant Number mean: 0.0340755 max: 0.429234
Time = 0.13s

smoothSolver:  Solving for Ux, Initial residual = 0.015205, Final residual = 5.22719e-06, No Iterations 5
smoothSolver:  Solving for Uy, Initial residual = 0.0173388, Final residual = 4.66098e-06, No Iterations 5
GAMG:  Solving for p, Initial residual = 0.0306432, Final residual = 0.0011502, No Iterations 2
time step continuity errors : sum local = 6.65702e-07, global = 7.80342e-20
GAMG:  Solving for p, Initial residual = 0.00376832, Final residual = 6.46444e-07, No Iterations 8
time step continuity errors : sum local = 4.05754e-10, global = -4.66336e-20, cumulative = -8.80583e-20
smoothSolver:  Solving for epsilon, Initial residual = 0.0172453, Final residual = 7.46595e-06, No Iterations 4
smoothSolver:  Solving for k, Initial residual = 0.0382018, Final residual = 9.89044e-06, No Iterations 5
ExecutionTime = 0.196096 s  ClockTime = 1 s

Courant Number mean: 0.0351017 max: 0.438865
Time = 0.135s

smoothSolver:  Solving for Ux, Initial residual = 0.0145402, Final residual = 5.13435e-06, No Iterations 5
smoothSolver:  Solving for Uy, Initial residual = 0.0166644, Final residual = 4.44715e-06, No Iterations 5
GAMG:  Solving for p, Initial residual = 0.0289379, Final residual = 0.00114943, No Iterations 2
time step continuity errors : sum local = 6.938e-07, global = 3.2379e-20
GAMG:  Solving for p, Initial residual = 0.00357694, Final residual = 6.55395e-07, No Iterations 8
time step continuity errors : sum local = 4.28488e-10, global = 1.20529e-20, cumulative = -7.60054e-20
smoothSolver:  Solving for epsilon, Initial residual = 0.0170912, Final residual = 7.22753e-06, No Iterations 4
smoothSolver:  Solving for k, Initial residual = 0.0369856, Final residual = 9.55636e-06, No Iterations 5
ExecutionTime = 0.198643 s  ClockTime = 1 s

Courant Number mean: 0.036108 max: 0.448381
Time = 0.14s

smoothSolver:  Solving for Ux, Initial residual = 0.0139284, Final residual = 4.96982e-06, No Iterations 5
smoothSolver:  Solving for Uy, Initial residual = 0.0160465, Final residual = 4.25133e-06, No Iterations 5
GAMG:  Solving for p, Initial residual = 0.0283412, Final residual = 0.00117069, No Iterations 2
time step continuity errors : sum local = 7.34947e-07, global = 9.98097e-20
GAMG:  Solving for p, Initial residual = 0.00341178, Final residual = 6.64418e-07, No Iterations 8
time step continuity errors : sum local = 4.51258e-10, global = -1.78346e-19, cumulative = -2.54351e-19
smoothSolver:  Solving for epsilon, Initial residual = 0.0169388, Final residual = 7.00521e-06, No Iterations 4
smoothSolver:  Solving for k, Initial residual = 0.0358318, Final residual = 9.25994e-06, No Iterations 5
ExecutionTime = 0.201339 s  ClockTime = 1 s

Courant Number mean: 0.0370936 max: 0.458288
Time = 0.145s

smoothSolver:  Solving for Ux, Initial residual = 0.0133642, Final residual = 4.89836e-06, No Iterations 5
smoothSolver:  Solving for Uy, Initial residual = 0.0154838, Final residual = 4.07571e-06, No Iterations 5
GAMG:  Solving for p, Initial residual = 0.0279276, Final residual = 0.00120277, No Iterations 2
time step continuity errors : sum local = 7.83534e-07, global = -8.36486e-21
GAMG:  Solving for p, Initial residual = 0.00326464, Final residual = 6.85346e-07, No Iterations 8
time step continuity errors : sum local = 4.82605e-10, global = -1.34757e-19, cumulative = -3.89108e-19
smoothSolver:  Solving for epsilon, Initial residual = 0.0166675, Final residual = 6.75167e-06, No Iterations 4
smoothSolver:  Solving for k, Initial residual = 0.0347339, Final residual = 8.98022e-06, No Iterations 5
ExecutionTime = 0.203907 s  ClockTime = 1 s

Courant Number mean: 0.0380601 max: 0.467781
Time = 0.15s

smoothSolver:  Solving for Ux, Initial residual = 0.0128521, Final residual = 4.67449e-06, No Iterations 5
smoothSolver:  Solving for Uy, Initial residual = 0.0149812, Final residual = 3.91567e-06, No Iterations 5
GAMG:  Solving for p, Initial residual = 0.0278158, Final residual = 0.00125089, No Iterations 2
time step continuity errors : sum local = 8.45145e-07, global = 3.89499e-20
GAMG:  Solving for p, Initial residual = 0.0032355, Final residual = 6.94795e-07, No Iterations 8
time step continuity errors : sum local = 5.07975e-10, global = -8.65619e-20, cumulative = -4.7567e-19
smoothSolver:  Solving for epsilon, Initial residual = 0.0163837, Final residual = 6.51278e-06, No Iterations 4
smoothSolver:  Solving for k, Initial residual = 0.0336856, Final residual = 8.76434e-06, No Iterations 5
ExecutionTime = 0.206584 s  ClockTime = 1 s

Courant Number mean: 0.0390081 max: 0.476791
Time = 0.155s

smoothSolver:  Solving for Ux, Initial residual = 0.012369, Final residual = 4.68506e-06, No Iterations 5
smoothSolver:  Solving for Uy, Initial residual = 0.01452, Final residual = 3.78126e-06, No Iterations 5
GAMG:  Solving for p, Initial residual = 0.0281877, Final residual = 0.00129705, No Iterations 2
time step continuity errors : sum local = 9.09421e-07, global = 1.20755e-20
GAMG:  Solving for p, Initial residual = 0.00318652, Final residual = 7.18328e-07, No Iterations 8
time step continuity errors : sum local = 5.45361e-10, global = 3.18898e-20, cumulative = -4.4378e-19
smoothSolver:  Solving for epsilon, Initial residual = 0.0160283, Final residual = 6.26715e-06, No Iterations 4
smoothSolver:  Solving for k, Initial residual = 0.0326881, Final residual = 8.55574e-06, No Iterations 5
ExecutionTime = 0.209206 s  ClockTime = 1 s

Courant Number mean: 0.0399365 max: 0.485375
Time = 0.16s

smoothSolver:  Solving for Ux, Initial residual = 0.0119136, Final residual = 4.70419e-06, No Iterations 5
smoothSolver:  Solving for Uy, Initial residual = 0.0140978, Final residual = 3.66792e-06, No Iterations 5
GAMG:  Solving for p, Initial residual = 0.0256307, Final residual = 0.00122857, No Iterations 2
time step continuity errors : sum local = 8.91016e-07, global = 1.27282e-20
GAMG:  Solving for p, Initial residual = 0.00298797, Final residual = 7.58883e-07, No Iterations 8
time step continuity errors : sum local = 5.93491e-10, global = 3.66771e-20, cumulative = -4.07103e-19
smoothSolver:  Solving for epsilon, Initial residual = 0.0155788, Final residual = 6.00944e-06, No Iterations 4
smoothSolver:  Solving for k, Initial residual = 0.0317447, Final residual = 8.3474e-06, No Iterations 5
ExecutionTime = 0.211784 s  ClockTime = 1 s

Courant Number mean: 0.0408514 max: 0.4936
Time = 0.165s

smoothSolver:  Solving for Ux, Initial residual = 0.011503, Final residual = 4.92644e-06, No Iterations 5
smoothSolver:  Solving for Uy, Initial residual = 0.013685, Final residual = 3.56407e-06, No Iterations 5
GAMG:  Solving for p, Initial residual = 0.0252943, Final residual = 0.00136942, No Iterations 2
time step continuity errors : sum local = 1.02468e-06, global = 1.65519e-19
GAMG:  Solving for p, Initial residual = 0.00297709, Final residual = 8.52425e-07, No Iterations 8
time step continuity errors : sum local = 6.89388e-10, global = -1.57242e-20, cumulative = -4.22827e-19
smoothSolver:  Solving for epsilon, Initial residual = 0.015106, Final residual = 5.7396e-06, No Iterations 4
smoothSolver:  Solving for k, Initial residual = 0.0308278, Final residual = 8.16224e-06, No Iterations 5
ExecutionTime = 0.214423 s  ClockTime = 1 s

Courant Number mean: 0.0417499 max: 0.501371
Time = 0.17s

smoothSolver:  Solving for Ux, Initial residual = 0.0111089, Final residual = 5.09115e-06, No Iterations 5
smoothSolver:  Solving for Uy, Initial residual = 0.0133613, Final residual = 3.48341e-06, No Iterations 5
GAMG:  Solving for p, Initial residual = 0.0250764, Final residual = 0.00133945, No Iterations 2
time step continuity errors : sum local = 1.0369e-06, global = 9.72764e-20
GAMG:  Solving for p, Initial residual = 0.00283006, Final residual = 8.09582e-07, No Iterations 8
time step continuity errors : sum local = 6.77731e-10, global = 1.18815e-19, cumulative = -3.04013e-19
smoothSolver:  Solving for epsilon, Initial residual = 0.0145727, Final residual = 5.47141e-06, No Iterations 4
smoothSolver:  Solving for k, Initial residual = 0.0299413, Final residual = 7.96611e-06, No Iterations 5
ExecutionTime = 0.21704 s  ClockTime = 1 s

Courant Number mean: 0.0426365 max: 0.508851
Time = 0.175s

smoothSolver:  Solving for Ux, Initial residual = 0.0107339, Final residual = 5.02365e-06, No Iterations 5
smoothSolver:  Solving for Uy, Initial residual = 0.0130202, Final residual = 3.39069e-06, No Iterations 5
GAMG:  Solving for p, Initial residual = 0.0256229, Final residual = 0.00130102, No Iterations 2
time step continuity errors : sum local = 1.0377e-06, global = 3.5941e-20
GAMG:  Solving for p, Initial residual = 0.00265591, Final residual = 8.54839e-07, No Iterations 8
time step continuity errors : sum local = 7.33078e-10, global = -1.17191e-19, cumulative = -4.21204e-19
smoothSolver:  Solving for epsilon, Initial residual = 0.0140209, Final residual = 5.21493e-06, No Iterations 4
smoothSolver:  Solving for k, Initial residual = 0.0290782, Final residual = 7.7461e-06, No Iterations 5
ExecutionTime = 0.21972 s  ClockTime = 1 s

Courant Number mean: 0.043503 max: 0.516066
Time = 0.18s

smoothSolver:  Solving for Ux, Initial residual = 0.0103805, Final residual = 4.95757e-06, No Iterations 5
smoothSolver:  Solving for Uy, Initial residual = 0.0126977, Final residual = 3.31796e-06, No Iterations 5
GAMG:  Solving for p, Initial residual = 0.0220493, Final residual = 0.00135869, No Iterations 2
time step continuity errors : sum local = 1.11299e-06, global = -2.94063e-20
GAMG:  Solving for p, Initial residual = 0.00268946, Final residual = 8.88198e-07, No Iterations 8
time step continuity errors : sum local = 7.84891e-10, global = 1.49295e-20, cumulative = -4.06274e-19
smoothSolver:  Solving for epsilon, Initial residual = 0.013421, Final residual = 4.95382e-06, No Iterations 4
smoothSolver:  Solving for k, Initial residual = 0.0282519, Final residual = 7.30804e-06, No Iterations 5
ExecutionTime = 0.222376 s  ClockTime = 1 s

Courant Number mean: 0.0443563 max: 0.522962
Time = 0.185s

smoothSolver:  Solving for Ux, Initial residual = 0.0100602, Final residual = 4.89377e-06, No Iterations 5
smoothSolver:  Solving for Uy, Initial residual = 0.0124376, Final residual = 3.25927e-06, No Iterations 5
GAMG:  Solving for p, Initial residual = 0.021275, Final residual = 0.00134901, No Iterations 2
time step continuity errors : sum local = 1.13732e-06, global = 8.82188e-20
GAMG:  Solving for p, Initial residual = 0.00260711, Final residual = 8.72782e-07, No Iterations 8
time step continuity errors : sum local = 7.93017e-10, global = 5.24828e-20, cumulative = -3.53791e-19
smoothSolver:  Solving for epsilon, Initial residual = 0.0129182, Final residual = 4.74333e-06, No Iterations 4
smoothSolver:  Solving for k, Initial residual = 0.0274686, Final residual = 7.13886e-06, No Iterations 5
ExecutionTime = 0.224957 s  ClockTime = 1 s

Courant Number mean: 0.0452002 max: 0.529562
Time = 0.19s

smoothSolver:  Solving for Ux, Initial residual = 0.00977913, Final residual = 4.82475e-06, No Iterations 5
smoothSolver:  Solving for Uy, Initial residual = 0.0121931, Final residual = 3.20458e-06, No Iterations 5
GAMG:  Solving for p, Initial residual = 0.0208926, Final residual = 0.00136384, No Iterations 2
time step continuity errors : sum local = 1.1808e-06, global = 4.32822e-20
GAMG:  Solving for p, Initial residual = 0.00256662, Final residual = 9.05177e-07, No Iterations 8
time step continuity errors : sum local = 8.43999e-10, global = 7.40782e-20, cumulative = -2.79713e-19
smoothSolver:  Solving for epsilon, Initial residual = 0.0124254, Final residual = 4.54594e-06, No Iterations 4
smoothSolver:  Solving for k, Initial residual = 0.0267011, Final residual = 7.69496e-06, No Iterations 5
ExecutionTime = 0.227591 s  ClockTime = 1 s

Courant Number mean: 0.0460267 max: 0.536097
Time = 0.195s

smoothSolver:  Solving for Ux, Initial residual = 0.00951484, Final residual = 4.74956e-06, No Iterations 5
smoothSolver:  Solving for Uy, Initial residual = 0.0119704, Final residual = 3.15653e-06, No Iterations 5
GAMG:  Solving for p, Initial residual = 0.0220843, Final residual = 0.00140532, No Iterations 2
time step continuity errors : sum local = 1.24774e-06, global = -3.9746e-20
GAMG:  Solving for p, Initial residual = 0.00270188, Final residual = 9.42275e-07, No Iterations 8
time step continuity errors : sum local = 9.00552e-10, global = -1.09921e-19, cumulative = -3.89634e-19
smoothSolver:  Solving for epsilon, Initial residual = 0.0118878, Final residual = 4.35235e-06, No Iterations 4
smoothSolver:  Solving for k, Initial residual = 0.0259476, Final residual = 7.87159e-06, No Iterations 5
ExecutionTime = 0.23026 s  ClockTime = 1 s

Courant Number mean: 0.0468384 max: 0.542406
Time = 0.2s

smoothSolver:  Solving for Ux, Initial residual = 0.00925117, Final residual = 4.68815e-06, No Iterations 5
smoothSolver:  Solving for Uy, Initial residual = 0.0117901, Final residual = 3.11784e-06, No Iterations 5
GAMG:  Solving for p, Initial residual = 0.0209565, Final residual = 0.00141336, No Iterations 2
time step continuity errors : sum local = 1.28556e-06, global = -1.29743e-19
GAMG:  Solving for p, Initial residual = 0.00265413, Final residual = 9.35484e-07, No Iterations 8
time step continuity errors : sum local = 9.15189e-10, global = -9.63452e-20, cumulative = -4.85979e-19
smoothSolver:  Solving for epsilon, Initial residual = 0.0113574, Final residual = 4.15598e-06, No Iterations 4
smoothSolver:  Solving for k, Initial residual = 0.0252175, Final residual = 7.76437e-06, No Iterations 5
ExecutionTime = 0.232938 s  ClockTime = 1 s

Courant Number mean: 0.0476433 max: 0.548514
Time = 0.205s

smoothSolver:  Solving for Ux, Initial residual = 0.00899868, Final residual = 4.6378e-06, No Iterations 5
smoothSolver:  Solving for Uy, Initial residual = 0.0116126, Final residual = 3.08266e-06, No Iterations 5
GAMG:  Solving for p, Initial residual = 0.0191477, Final residual = 0.00142282, No Iterations 2
time step continuity errors : sum local = 1.32548e-06, global = -2.57667e-20
GAMG:  Solving for p, Initial residual = 0.00252282, Final residual = 8.69353e-07, No Iterations 8
time step continuity errors : sum local = 8.72143e-10, global = 6.42325e-20, cumulative = -4.21747e-19
smoothSolver:  Solving for epsilon, Initial residual = 0.0108412, Final residual = 3.985e-06, No Iterations 4
smoothSolver:  Solving for k, Initial residual = 0.0244911, Final residual = 7.63863e-06, No Iterations 5
ExecutionTime = 0.235527 s  ClockTime = 1 s

Courant Number mean: 0.0484393 max: 0.554449
Time = 0.21s

smoothSolver:  Solving for Ux, Initial residual = 0.00876194, Final residual = 4.56521e-06, No Iterations 5
smoothSolver:  Solving for Uy, Initial residual = 0.0114248, Final residual = 3.03311e-06, No Iterations 5
GAMG:  Solving for p, Initial residual = 0.0185609, Final residual = 0.00141421, No Iterations 2
time step continuity errors : sum local = 1.35012e-06, global = 3.8588e-20
GAMG:  Solving for p, Initial residual = 0.00246266, Final residual = 8.87399e-07, No Iterations 8
time step continuity errors : sum local = 9.11617e-10, global = 4.91009e-21, cumulative = -4.16837e-19
smoothSolver:  Solving for epsilon, Initial residual = 0.0103374, Final residual = 3.8166e-06, No Iterations 4
smoothSolver:  Solving for k, Initial residual = 0.0237406, Final residual = 7.49884e-06, No Iterations 5
ExecutionTime = 0.238143 s  ClockTime = 1 s

Courant Number mean: 0.0492242 max: 0.56017
Time = 0.215s

smoothSolver:  Solving for Ux, Initial residual = 0.00853658, Final residual = 4.49348e-06, No Iterations 5
smoothSolver:  Solving for Uy, Initial residual = 0.0112548, Final residual = 2.99848e-06, No Iterations 5
GAMG:  Solving for p, Initial residual = 0.0186232, Final residual = 0.00140387, No Iterations 2
time step continuity errors : sum local = 1.36799e-06, global = -2.63871e-19
GAMG:  Solving for p, Initial residual = 0.00243643, Final residual = 8.55384e-07, No Iterations 8
time step continuity errors : sum local = 8.94396e-10, global = 2.64344e-19, cumulative = -1.52493e-19
smoothSolver:  Solving for epsilon, Initial residual = 0.00985217, Final residual = 3.66287e-06, No Iterations 4
smoothSolver:  Solving for k, Initial residual = 0.023011, Final residual = 7.35087e-06, No Iterations 5
ExecutionTime = 0.240874 s  ClockTime = 1 s

Courant Number mean: 0.0499978 max: 0.56569
Time = 0.22s

smoothSolver:  Solving for Ux, Initial residual = 0.00833593, Final residual = 4.42255e-06, No Iterations 5
smoothSolver:  Solving for Uy, Initial residual = 0.0110934, Final residual = 2.97005e-06, No Iterations 5
GAMG:  Solving for p, Initial residual = 0.019756, Final residual = 0.00140056, No Iterations 2
time step continuity errors : sum local = 1.38965e-06, global = -9.42986e-21
GAMG:  Solving for p, Initial residual = 0.00250873, Final residual = 8.70221e-07, No Iterations 8
time step continuity errors : sum local = 9.27166e-10, global = 6.57195e-20, cumulative = -8.67736e-20
smoothSolver:  Solving for epsilon, Initial residual = 0.00938793, Final residual = 3.53373e-06, No Iterations 4
smoothSolver:  Solving for k, Initial residual = 0.0223009, Final residual = 7.1952e-06, No Iterations 5
ExecutionTime = 0.243433 s  ClockTime = 1 s

Courant Number mean: 0.0507649 max: 0.571016
Time = 0.225s

smoothSolver:  Solving for Ux, Initial residual = 0.0081354, Final residual = 4.34992e-06, No Iterations 5
smoothSolver:  Solving for Uy, Initial residual = 0.0109564, Final residual = 2.95487e-06, No Iterations 5
GAMG:  Solving for p, Initial residual = 0.0196267, Final residual = 0.0014034, No Iterations 2
time step continuity errors : sum local = 1.41642e-06, global = -1.10511e-19
GAMG:  Solving for p, Initial residual = 0.00241515, Final residual = 7.94728e-07, No Iterations 8
time step continuity errors : sum local = 8.60298e-10, global = -1.52221e-19, cumulative = -2.38994e-19
smoothSolver:  Solving for epsilon, Initial residual = 0.00894415, Final residual = 3.39912e-06, No Iterations 4
smoothSolver:  Solving for k, Initial residual = 0.0216211, Final residual = 7.05402e-06, No Iterations 5
ExecutionTime = 0.245913 s  ClockTime = 1 s

Courant Number mean: 0.0515235 max: 0.576167
Time = 0.23s

smoothSolver:  Solving for Ux, Initial residual = 0.00794619, Final residual = 4.27547e-06, No Iterations 5
smoothSolver:  Solving for Uy, Initial residual = 0.0108133, Final residual = 2.93743e-06, No Iterations 5
GAMG:  Solving for p, Initial residual = 0.0197111, Final residual = 0.00139948, No Iterations 2
time step continuity errors : sum local = 1.43417e-06, global = 2.29956e-20
GAMG:  Solving for p, Initial residual = 0.00236356, Final residual = 7.42079e-07, No Iterations 8
time step continuity errors : sum local = 8.15486e-10, global = 2.02957e-20, cumulative = -2.18699e-19
smoothSolver:  Solving for epsilon, Initial residual = 0.00852627, Final residual = 3.2699e-06, No Iterations 4
smoothSolver:  Solving for k, Initial residual = 0.0209993, Final residual = 6.90635e-06, No Iterations 5
ExecutionTime = 0.248564 s  ClockTime = 1 s

Courant Number mean: 0.0522744 max: 0.581145
Time = 0.235s

smoothSolver:  Solving for Ux, Initial residual = 0.00775979, Final residual = 4.19962e-06, No Iterations 5
smoothSolver:  Solving for Uy, Initial residual = 0.0106741, Final residual = 2.92196e-06, No Iterations 5
GAMG:  Solving for p, Initial residual = 0.0214437, Final residual = 0.00140051, No Iterations 2
time step continuity errors : sum local = 1.45726e-06, global = 3.77194e-20
GAMG:  Solving for p, Initial residual = 0.00238449, Final residual = 6.88121e-07, No Iterations 8
time step continuity errors : sum local = 7.68132e-10, global = -4.1823e-20, cumulative = -2.60522e-19
smoothSolver:  Solving for epsilon, Initial residual = 0.00812094, Final residual = 3.1616e-06, No Iterations 4
smoothSolver:  Solving for k, Initial residual = 0.0203937, Final residual = 6.75417e-06, No Iterations 5
ExecutionTime = 0.251175 s  ClockTime = 1 s

Courant Number mean: 0.0530319 max: 0.585962
Time = 0.24s

smoothSolver:  Solving for Ux, Initial residual = 0.00758189, Final residual = 4.1236e-06, No Iterations 5
smoothSolver:  Solving for Uy, Initial residual = 0.0105405, Final residual = 2.90327e-06, No Iterations 5
GAMG:  Solving for p, Initial residual = 0.0185224, Final residual = 0.0013517, No Iterations 2
time step continuity errors : sum local = 1.42821e-06, global = -7.02276e-20
GAMG:  Solving for p, Initial residual = 0.00212944, Final residual = 6.2831e-07, No Iterations 8
time step continuity errors : sum local = 7.12493e-10, global = 5.11094e-20, cumulative = -2.09412e-19
smoothSolver:  Solving for epsilon, Initial residual = 0.00774264, Final residual = 3.05972e-06, No Iterations 4
smoothSolver:  Solving for k, Initial residual = 0.0198003, Final residual = 6.59045e-06, No Iterations 5
ExecutionTime = 0.25381 s  ClockTime = 1 s

Courant Number mean: 0.0537851 max: 0.590585
Time = 0.245s

smoothSolver:  Solving for Ux, Initial residual = 0.00742527, Final residual = 4.04709e-06, No Iterations 5
smoothSolver:  Solving for Uy, Initial residual = 0.0104273, Final residual = 2.86883e-06, No Iterations 5
GAMG:  Solving for p, Initial residual = 0.0182213, Final residual = 0.00135331, No Iterations 2
time step continuity errors : sum local = 1.45241e-06, global = -5.0913e-20
GAMG:  Solving for p, Initial residual = 0.00209131, Final residual = 5.78068e-07, No Iterations 8
time step continuity errors : sum local = 6.65654e-10, global = -8.39459e-20, cumulative = -2.93358e-19
smoothSolver:  Solving for epsilon, Initial residual = 0.00737068, Final residual = 2.96212e-06, No Iterations 4
smoothSolver:  Solving for k, Initial residual = 0.0192295, Final residual = 6.31278e-06, No Iterations 5
ExecutionTime = 0.25653 s  ClockTime = 1 s

Courant Number mean: 0.0545268 max: 0.595046
Time = 0.25s

smoothSolver:  Solving for Ux, Initial residual = 0.00727099, Final residual = 3.95217e-06, No Iterations 5
smoothSolver:  Solving for Uy, Initial residual = 0.010311, Final residual = 2.85084e-06, No Iterations 5
GAMG:  Solving for p, Initial residual = 0.0165138, Final residual = 0.0013585, No Iterations 2
time step continuity errors : sum local = 1.47736e-06, global = -5.0047e-20
GAMG:  Solving for p, Initial residual = 0.00216459, Final residual = 5.16929e-07, No Iterations 8
time step continuity errors : sum local = 6.02998e-10, global = -3.97926e-20, cumulative = -3.33151e-19
smoothSolver:  Solving for epsilon, Initial residual = 0.00703449, Final residual = 2.8848e-06, No Iterations 4
smoothSolver:  Solving for k, Initial residual = 0.0187289, Final residual = 6.17554e-06, No Iterations 5
ExecutionTime = 0.259165 s  ClockTime = 1 s

Courant Number mean: 0.0552608 max: 0.599332
Time = 0.255s

smoothSolver:  Solving for Ux, Initial residual = 0.0071151, Final residual = 3.85251e-06, No Iterations 5
smoothSolver:  Solving for Uy, Initial residual = 0.0102009, Final residual = 2.82281e-06, No Iterations 5
GAMG:  Solving for p, Initial residual = 0.0154773, Final residual = 0.00134931, No Iterations 2
time step continuity errors : sum local = 1.48599e-06, global = -4.66943e-20
GAMG:  Solving for p, Initial residual = 0.00208392, Final residual = 5.76546e-07, No Iterations 8
time step continuity errors : sum local = 6.81315e-10, global = -3.21592e-20, cumulative = -3.6531e-19
smoothSolver:  Solving for epsilon, Initial residual = 0.00671362, Final residual = 2.7713e-06, No Iterations 4
smoothSolver:  Solving for k, Initial residual = 0.0182435, Final residual = 6.03329e-06, No Iterations 5
ExecutionTime = 0.261982 s  ClockTime = 1 s

Courant Number mean: 0.0559873 max: 0.603456
Time = 0.26s

smoothSolver:  Solving for Ux, Initial residual = 0.00697584, Final residual = 3.78848e-06, No Iterations 5
smoothSolver:  Solving for Uy, Initial residual = 0.0101044, Final residual = 2.79531e-06, No Iterations 5
GAMG:  Solving for p, Initial residual = 0.0163017, Final residual = 0.0013467, No Iterations 2
time step continuity errors : sum local = 1.50182e-06, global = 6.19145e-20
GAMG:  Solving for p, Initial residual = 0.00215289, Final residual = 6.06667e-07, No Iterations 8
time step continuity errors : sum local = 7.25545e-10, global = 4.61257e-20, cumulative = -3.19184e-19
smoothSolver:  Solving for epsilon, Initial residual = 0.00640495, Final residual = 2.69879e-06, No Iterations 4
smoothSolver:  Solving for k, Initial residual = 0.0177655, Final residual = 5.88573e-06, No Iterations 5
ExecutionTime = 0.264588 s  ClockTime = 1 s

Courant Number mean: 0.056708 max: 0.607479
Time = 0.265s

smoothSolver:  Solving for Ux, Initial residual = 0.00683967, Final residual = 3.73344e-06, No Iterations 5
smoothSolver:  Solving for Uy, Initial residual = 0.0100198, Final residual = 2.76657e-06, No Iterations 5
GAMG:  Solving for p, Initial residual = 0.0163031, Final residual = 0.00135579, No Iterations 2
time step continuity errors : sum local = 1.52923e-06, global = 2.21519e-19
GAMG:  Solving for p, Initial residual = 0.00216288, Final residual = 6.18609e-07, No Iterations 8
time step continuity errors : sum local = 7.47887e-10, global = -7.04551e-20, cumulative = -3.89639e-19
smoothSolver:  Solving for epsilon, Initial residual = 0.00611479, Final residual = 2.6329e-06, No Iterations 4
smoothSolver:  Solving for k, Initial residual = 0.0172964, Final residual = 5.7281e-06, No Iterations 5
ExecutionTime = 0.26717 s  ClockTime = 1 s

Courant Number mean: 0.0574203 max: 0.611395
Time = 0.27s

smoothSolver:  Solving for Ux, Initial residual = 0.00671013, Final residual = 3.66083e-06, No Iterations 5
smoothSolver:  Solving for Uy, Initial residual = 0.00993678, Final residual = 2.7178e-06, No Iterations 5
GAMG:  Solving for p, Initial residual = 0.0148394, Final residual = 0.00132624, No Iterations 2
time step continuity errors : sum local = 1.51191e-06, global = 6.84906e-20
GAMG:  Solving for p, Initial residual = 0.00196238, Final residual = 5.28529e-07, No Iterations 8
time step continuity errors : sum local = 6.4566e-10, global = -1.13375e-20, cumulative = -4.00977e-19
smoothSolver:  Solving for epsilon, Initial residual = 0.00584409, Final residual = 2.56169e-06, No Iterations 4
smoothSolver:  Solving for k, Initial residual = 0.0168926, Final residual = 5.56626e-06, No Iterations 5
ExecutionTime = 0.269883 s  ClockTime = 1 s

Courant Number mean: 0.0581218 max: 0.615186
Time = 0.275s

smoothSolver:  Solving for Ux, Initial residual = 0.00658914, Final residual = 3.58763e-06, No Iterations 5
smoothSolver:  Solving for Uy, Initial residual = 0.0098389, Final residual = 2.69506e-06, No Iterations 5
GAMG:  Solving for p, Initial residual = 0.0143335, Final residual = 0.00135235, No Iterations 2
time step continuity errors : sum local = 1.55847e-06, global = 1.95215e-19
GAMG:  Solving for p, Initial residual = 0.00197672, Final residual = 6.22889e-07, No Iterations 8
time step continuity errors : sum local = 7.70021e-10, global = 2.52158e-19, cumulative = -1.48819e-19
smoothSolver:  Solving for epsilon, Initial residual = 0.0055905, Final residual = 2.4935e-06, No Iterations 4
smoothSolver:  Solving for k, Initial residual = 0.0164915, Final residual = 5.44009e-06, No Iterations 5
ExecutionTime = 0.272552 s  ClockTime = 1 s

Courant Number mean: 0.0588155 max: 0.61884
Time = 0.28s

smoothSolver:  Solving for Ux, Initial residual = 0.00648147, Final residual = 3.51118e-06, No Iterations 5
smoothSolver:  Solving for Uy, Initial residual = 0.00976075, Final residual = 2.68443e-06, No Iterations 5
GAMG:  Solving for p, Initial residual = 0.0143457, Final residual = 0.00134736, No Iterations 2
time step continuity errors : sum local = 1.5725e-06, global = -3.89188e-20
GAMG:  Solving for p, Initial residual = 0.0019474, Final residual = 6.35262e-07, No Iterations 8
time step continuity errors : sum local = 7.95284e-10, global = -1.78247e-19, cumulative = -3.27066e-19
smoothSolver:  Solving for epsilon, Initial residual = 0.00535547, Final residual = 2.38834e-06, No Iterations 4
smoothSolver:  Solving for k, Initial residual = 0.0160958, Final residual = 5.30692e-06, No Iterations 5
ExecutionTime = 0.275181 s  ClockTime = 1 s

Courant Number mean: 0.0595015 max: 0.622398
Time = 0.285s

smoothSolver:  Solving for Ux, Initial residual = 0.00637763, Final residual = 3.43613e-06, No Iterations 5
smoothSolver:  Solving for Uy, Initial residual = 0.00968009, Final residual = 2.67763e-06, No Iterations 5
GAMG:  Solving for p, Initial residual = 0.0143645, Final residual = 0.00133492, No Iterations 2
time step continuity errors : sum local = 1.57687e-06, global = -1.08361e-20
GAMG:  Solving for p, Initial residual = 0.00193556, Final residual = 6.54911e-07, No Iterations 8
time step continuity errors : sum local = 8.29357e-10, global = 1.11098e-19, cumulative = -2.15968e-19
smoothSolver:  Solving for epsilon, Initial residual = 0.00513747, Final residual = 2.34327e-06, No Iterations 4
smoothSolver:  Solving for k, Initial residual = 0.0157121, Final residual = 5.17775e-06, No Iterations 5
ExecutionTime = 0.277887 s  ClockTime = 1 s

Courant Number mean: 0.0601792 max: 0.62593
Time = 0.29s

smoothSolver:  Solving for Ux, Initial residual = 0.00627913, Final residual = 3.35837e-06, No Iterations 5
smoothSolver:  Solving for Uy, Initial residual = 0.00959986, Final residual = 2.66888e-06, No Iterations 5
GAMG:  Solving for p, Initial residual = 0.015135, Final residual = 0.00133993, No Iterations 2
time step continuity errors : sum local = 1.59933e-06, global = 4.10695e-20
GAMG:  Solving for p, Initial residual = 0.0020063, Final residual = 6.94235e-07, No Iterations 8
time step continuity errors : sum local = 8.87093e-10, global = -1.27737e-19, cumulative = -3.43705e-19
smoothSolver:  Solving for epsilon, Initial residual = 0.0049324, Final residual = 2.29379e-06, No Iterations 4
smoothSolver:  Solving for k, Initial residual = 0.0153714, Final residual = 5.00505e-06, No Iterations 5
ExecutionTime = 0.280539 s  ClockTime = 1 s

Courant Number mean: 0.060849 max: 0.629329
Time = 0.295s

smoothSolver:  Solving for Ux, Initial residual = 0.0061876, Final residual = 3.2845e-06, No Iterations 5
smoothSolver:  Solving for Uy, Initial residual = 0.00952036, Final residual = 2.6635e-06, No Iterations 5
GAMG:  Solving for p, Initial residual = 0.0150097, Final residual = 0.00133915, No Iterations 2
time step continuity errors : sum local = 1.61392e-06, global = -1.52201e-19
GAMG:  Solving for p, Initial residual = 0.00186028, Final residual = 7.20007e-07, No Iterations 8
time step continuity errors : sum local = 9.28929e-10, global = -1.6282e-19, cumulative = -5.06525e-19
smoothSolver:  Solving for epsilon, Initial residual = 0.00474305, Final residual = 2.27993e-06, No Iterations 4
smoothSolver:  Solving for k, Initial residual = 0.0150476, Final residual = 4.87591e-06, No Iterations 5
ExecutionTime = 0.283211 s  ClockTime = 1 s

Courant Number mean: 0.0615202 max: 0.632608
Time = 0.3s

smoothSolver:  Solving for Ux, Initial residual = 0.00610172, Final residual = 3.20815e-06, No Iterations 5
smoothSolver:  Solving for Uy, Initial residual = 0.00941804, Final residual = 2.65684e-06, No Iterations 5
GAMG:  Solving for p, Initial residual = 0.015302, Final residual = 0.00131919, No Iterations 2
time step continuity errors : sum local = 1.60482e-06, global = -1.13861e-19
GAMG:  Solving for p, Initial residual = 0.00189343, Final residual = 8.28865e-07, No Iterations 8
time step continuity errors : sum local = 1.07818e-09, global = 3.19486e-20, cumulative = -4.74577e-19
smoothSolver:  Solving for epsilon, Initial residual = 0.00456644, Final residual = 2.22283e-06, No Iterations 4
smoothSolver:  Solving for k, Initial residual = 0.014721, Final residual = 4.75989e-06, No Iterations 5
ExecutionTime = 0.285925 s  ClockTime = 1 s

Courant Number mean: 0.0621893 max: 0.635772
Time = 0.305s

smoothSolver:  Solving for Ux, Initial residual = 0.00602218, Final residual = 3.12386e-06, No Iterations 5
smoothSolver:  Solving for Uy, Initial residual = 0.00934378, Final residual = 2.65367e-06, No Iterations 5
GAMG:  Solving for p, Initial residual = 0.0142632, Final residual = 0.00134272, No Iterations 2
time step continuity errors : sum local = 1.64641e-06, global = 1.03232e-19
GAMG:  Solving for p, Initial residual = 0.00196176, Final residual = 9.26921e-07, No Iterations 8
time step continuity errors : sum local = 1.21466e-09, global = -2.86404e-19, cumulative = -7.6098e-19
smoothSolver:  Solving for epsilon, Initial residual = 0.00440225, Final residual = 2.13977e-06, No Iterations 4
smoothSolver:  Solving for k, Initial residual = 0.0143984, Final residual = 4.64178e-06, No Iterations 5
ExecutionTime = 0.288706 s  ClockTime = 1 s

Courant Number mean: 0.0628523 max: 0.638794
Time = 0.31s

smoothSolver:  Solving for Ux, Initial residual = 0.00594561, Final residual = 3.0462e-06, No Iterations 5
smoothSolver:  Solving for Uy, Initial residual = 0.00927199, Final residual = 2.63794e-06, No Iterations 5
GAMG:  Solving for p, Initial residual = 0.0129334, Final residual = 0.000525579, No Iterations 3
time step continuity errors : sum local = 6.53902e-07, global = 2.46748e-19
GAMG:  Solving for p, Initial residual = 0.0019369, Final residual = 9.71246e-07, No Iterations 8
time step continuity errors : sum local = 1.2872e-09, global = -3.7775e-20, cumulative = -7.98755e-19
smoothSolver:  Solving for epsilon, Initial residual = 0.00425022, Final residual = 2.10774e-06, No Iterations 4
smoothSolver:  Solving for k, Initial residual = 0.0141045, Final residual = 4.51201e-06, No Iterations 5
ExecutionTime = 0.291474 s  ClockTime = 1 s

Courant Number mean: 0.063517 max: 0.641692
Time = 0.315s

smoothSolver:  Solving for Ux, Initial residual = 0.00587087, Final residual = 2.96823e-06, No Iterations 5
smoothSolver:  Solving for Uy, Initial residual = 0.00920038, Final residual = 2.61842e-06, No Iterations 5
GAMG:  Solving for p, Initial residual = 0.0124631, Final residual = 0.000532674, No Iterations 3
time step continuity errors : sum local = 6.67221e-07, global = 1.41613e-19
GAMG:  Solving for p, Initial residual = 0.00187286, Final residual = 5.28072e-07, No Iterations 9
time step continuity errors : sum local = 7.05575e-10, global = -7.20242e-20, cumulative = -8.70779e-19
smoothSolver:  Solving for epsilon, Initial residual = 0.0041104, Final residual = 2.07648e-06, No Iterations 4
smoothSolver:  Solving for k, Initial residual = 0.0138328, Final residual = 4.36525e-06, No Iterations 5
ExecutionTime = 0.294318 s  ClockTime = 1 s

Courant Number mean: 0.064179 max: 0.644464
Time = 0.32s

smoothSolver:  Solving for Ux, Initial residual = 0.00579557, Final residual = 2.90957e-06, No Iterations 5
smoothSolver:  Solving for Uy, Initial residual = 0.00911462, Final residual = 2.59901e-06, No Iterations 5
GAMG:  Solving for p, Initial residual = 0.0117919, Final residual = 0.000522981, No Iterations 3
time step continuity errors : sum local = 6.60208e-07, global = -1.02488e-19
GAMG:  Solving for p, Initial residual = 0.00185288, Final residual = 5.43077e-07, No Iterations 9
time step continuity errors : sum local = 7.31388e-10, global = -1.18081e-19, cumulative = -9.8886e-19
smoothSolver:  Solving for epsilon, Initial residual = 0.00397798, Final residual = 2.04702e-06, No Iterations 4
smoothSolver:  Solving for k, Initial residual = 0.0135603, Final residual = 4.26663e-06, No Iterations 5
ExecutionTime = 0.297154 s  ClockTime = 1 s

Courant Number mean: 0.0648384 max: 0.64715
Time = 0.325s

smoothSolver:  Solving for Ux, Initial residual = 0.00572268, Final residual = 2.86084e-06, No Iterations 5
smoothSolver:  Solving for Uy, Initial residual = 0.0090309, Final residual = 2.58259e-06, No Iterations 5
GAMG:  Solving for p, Initial residual = 0.0125074, Final residual = 0.000522353, No Iterations 3
time step continuity errors : sum local = 6.64238e-07, global = 1.9174e-19
GAMG:  Solving for p, Initial residual = 0.00191362, Final residual = 5.64892e-07, No Iterations 9
time step continuity errors : sum local = 7.66021e-10, global = -1.22885e-19, cumulative = -1.11175e-18
smoothSolver:  Solving for epsilon, Initial residual = 0.00385704, Final residual = 2.02547e-06, No Iterations 4
smoothSolver:  Solving for k, Initial residual = 0.0132829, Final residual = 4.15448e-06, No Iterations 5
ExecutionTime = 0.300028 s  ClockTime = 1 s

Courant Number mean: 0.0654952 max: 0.649753
Time = 0.33s

smoothSolver:  Solving for Ux, Initial residual = 0.0056525, Final residual = 2.81184e-06, No Iterations 5
smoothSolver:  Solving for Uy, Initial residual = 0.0089501, Final residual = 2.55963e-06, No Iterations 5
GAMG:  Solving for p, Initial residual = 0.0115183, Final residual = 0.000523119, No Iterations 3
time step continuity errors : sum local = 6.69498e-07, global = 3.71404e-20
GAMG:  Solving for p, Initial residual = 0.00180975, Final residual = 5.79062e-07, No Iterations 9
time step continuity errors : sum local = 7.89912e-10, global = -4.54791e-20, cumulative = -1.15722e-18
smoothSolver:  Solving for epsilon, Initial residual = 0.00374963, Final residual = 1.97031e-06, No Iterations 4
smoothSolver:  Solving for k, Initial residual = 0.0130285, Final residual = 4.03816e-06, No Iterations 5
ExecutionTime = 0.302764 s  ClockTime = 1 s

Courant Number mean: 0.0661491 max: 0.65227
Time = 0.335s

smoothSolver:  Solving for Ux, Initial residual = 0.00560403, Final residual = 2.7638e-06, No Iterations 5
smoothSolver:  Solving for Uy, Initial residual = 0.00887136, Final residual = 2.53564e-06, No Iterations 5
GAMG:  Solving for p, Initial residual = 0.0118611, Final residual = 0.000525126, No Iterations 3
time step continuity errors : sum local = 6.7691e-07, global = 1.31356e-19
GAMG:  Solving for p, Initial residual = 0.00182933, Final residual = 6.07436e-07, No Iterations 9
time step continuity errors : sum local = 8.35545e-10, global = -1.38167e-19, cumulative = -1.29539e-18
smoothSolver:  Solving for epsilon, Initial residual = 0.00364498, Final residual = 1.94057e-06, No Iterations 4
smoothSolver:  Solving for k, Initial residual = 0.0127936, Final residual = 3.83991e-06, No Iterations 5
ExecutionTime = 0.305583 s  ClockTime = 1 s

Courant Number mean: 0.0668027 max: 0.654702
Time = 0.34s

smoothSolver:  Solving for Ux, Initial residual = 0.0055586, Final residual = 2.7179e-06, No Iterations 5
smoothSolver:  Solving for Uy, Initial residual = 0.00879546, Final residual = 2.5131e-06, No Iterations 5
GAMG:  Solving for p, Initial residual = 0.0119354, Final residual = 0.000516115, No Iterations 3
time step continuity errors : sum local = 6.70017e-07, global = -3.45761e-20
GAMG:  Solving for p, Initial residual = 0.00179712, Final residual = 5.7689e-07, No Iterations 9
time step continuity errors : sum local = 7.99204e-10, global = 2.07396e-20, cumulative = -1.27465e-18
smoothSolver:  Solving for epsilon, Initial residual = 0.0035597, Final residual = 1.91698e-06, No Iterations 4
smoothSolver:  Solving for k, Initial residual = 0.0125706, Final residual = 3.74266e-06, No Iterations 5
ExecutionTime = 0.308295 s  ClockTime = 1 s

Courant Number mean: 0.067452 max: 0.657045
Time = 0.345s

smoothSolver:  Solving for Ux, Initial residual = 0.00550642, Final residual = 2.66397e-06, No Iterations 5
smoothSolver:  Solving for Uy, Initial residual = 0.00870139, Final residual = 2.47313e-06, No Iterations 5
GAMG:  Solving for p, Initial residual = 0.0123928, Final residual = 0.000515658, No Iterations 3
time step continuity errors : sum local = 6.74629e-07, global = -1.24822e-19
GAMG:  Solving for p, Initial residual = 0.00182702, Final residual = 6.08166e-07, No Iterations 9
time step continuity errors : sum local = 8.48297e-10, global = 1.66221e-19, cumulative = -1.10843e-18
smoothSolver:  Solving for epsilon, Initial residual = 0.00348237, Final residual = 1.8994e-06, No Iterations 4
smoothSolver:  Solving for k, Initial residual = 0.0123457, Final residual = 3.67927e-06, No Iterations 5
ExecutionTime = 0.311041 s  ClockTime = 1 s

Courant Number mean: 0.0680984 max: 0.659302
Time = 0.35s

smoothSolver:  Solving for Ux, Initial residual = 0.00545785, Final residual = 9.99318e-06, No Iterations 4
smoothSolver:  Solving for Uy, Initial residual = 0.00861614, Final residual = 2.44506e-06, No Iterations 5
GAMG:  Solving for p, Initial residual = 0.0117222, Final residual = 0.000512272, No Iterations 3
time step continuity errors : sum local = 6.73946e-07, global = 2.75451e-20
GAMG:  Solving for p, Initial residual = 0.0017967, Final residual = 6.05769e-07, No Iterations 9
time step continuity errors : sum local = 8.50203e-10, global = -1.61992e-19, cumulative = -1.27042e-18
smoothSolver:  Solving for epsilon, Initial residual = 0.00341817, Final residual = 1.89339e-06, No Iterations 4
smoothSolver:  Solving for k, Initial residual = 0.0121142, Final residual = 3.6017e-06, No Iterations 5
ExecutionTime = 0.313716 s  ClockTime = 1 s

Courant Number mean: 0.0687491 max: 0.661475
Time = 0.355s

smoothSolver:  Solving for Ux, Initial residual = 0.00540826, Final residual = 9.83073e-06, No Iterations 4
smoothSolver:  Solving for Uy, Initial residual = 0.00853447, Final residual = 2.41981e-06, No Iterations 5
GAMG:  Solving for p, Initial residual = 0.0124772, Final residual = 0.000512217, No Iterations 3
time step continuity errors : sum local = 6.77597e-07, global = 3.90016e-20
GAMG:  Solving for p, Initial residual = 0.00183557, Final residual = 5.9061e-07, No Iterations 9
time step continuity errors : sum local = 8.33268e-10, global = -7.21095e-20, cumulative = -1.34253e-18
smoothSolver:  Solving for epsilon, Initial residual = 0.00336114, Final residual = 1.86236e-06, No Iterations 4
smoothSolver:  Solving for k, Initial residual = 0.0119107, Final residual = 3.49287e-06, No Iterations 5
ExecutionTime = 0.317551 s  ClockTime = 1 s

Courant Number mean: 0.0693969 max: 0.66356
Time = 0.36s

smoothSolver:  Solving for Ux, Initial residual = 0.0053582, Final residual = 9.6772e-06, No Iterations 4
smoothSolver:  Solving for Uy, Initial residual = 0.00845298, Final residual = 2.39711e-06, No Iterations 5
GAMG:  Solving for p, Initial residual = 0.0114777, Final residual = 0.000505408, No Iterations 3
time step continuity errors : sum local = 6.7181e-07, global = 2.64408e-19
GAMG:  Solving for p, Initial residual = 0.00178487, Final residual = 5.88869e-07, No Iterations 9
time step continuity errors : sum local = 8.34172e-10, global = -7.91418e-20, cumulative = -1.42167e-18
smoothSolver:  Solving for epsilon, Initial residual = 0.00330608, Final residual = 1.84146e-06, No Iterations 4
smoothSolver:  Solving for k, Initial residual = 0.0117187, Final residual = 3.39302e-06, No Iterations 5
ExecutionTime = 0.320259 s  ClockTime = 1 s

Courant Number mean: 0.070044 max: 0.665566
Time = 0.365s

smoothSolver:  Solving for Ux, Initial residual = 0.00533705, Final residual = 9.53528e-06, No Iterations 4
smoothSolver:  Solving for Uy, Initial residual = 0.00837023, Final residual = 2.37915e-06, No Iterations 5
GAMG:  Solving for p, Initial residual = 0.0113856, Final residual = 0.000500701, No Iterations 3
time step continuity errors : sum local = 6.68992e-07, global = -2.01829e-20
GAMG:  Solving for p, Initial residual = 0.00182395, Final residual = 5.77861e-07, No Iterations 9
time step continuity errors : sum local = 8.23511e-10, global = -1.38497e-19, cumulative = -1.56017e-18
smoothSolver:  Solving for epsilon, Initial residual = 0.00325151, Final residual = 1.82222e-06, No Iterations 4
smoothSolver:  Solving for k, Initial residual = 0.0115313, Final residual = 3.3206e-06, No Iterations 5
ExecutionTime = 0.32307 s  ClockTime = 1 s

Courant Number mean: 0.0706885 max: 0.66749
Time = 0.37s

smoothSolver:  Solving for Ux, Initial residual = 0.00531627, Final residual = 9.40533e-06, No Iterations 4
smoothSolver:  Solving for Uy, Initial residual = 0.00829209, Final residual = 2.36431e-06, No Iterations 5
GAMG:  Solving for p, Initial residual = 0.0112944, Final residual = 0.000494428, No Iterations 3
time step continuity errors : sum local = 6.64572e-07, global = 4.46678e-20
GAMG:  Solving for p, Initial residual = 0.00174759, Final residual = 5.32155e-07, No Iterations 9
time step continuity errors : sum local = 7.63975e-10, global = 2.91374e-20, cumulative = -1.53103e-18
smoothSolver:  Solving for epsilon, Initial residual = 0.0031966, Final residual = 1.80699e-06, No Iterations 4
smoothSolver:  Solving for k, Initial residual = 0.0113351, Final residual = 3.25354e-06, No Iterations 5
ExecutionTime = 0.325771 s  ClockTime = 1 s

Courant Number mean: 0.071332 max: 0.669341
Time = 0.375s

smoothSolver:  Solving for Ux, Initial residual = 0.0052738, Final residual = 9.23423e-06, No Iterations 4
smoothSolver:  Solving for Uy, Initial residual = 0.00819952, Final residual = 2.32555e-06, No Iterations 5
GAMG:  Solving for p, Initial residual = 0.0108965, Final residual = 0.000491926, No Iterations 3
time step continuity errors : sum local = 6.66289e-07, global = -2.44638e-19
GAMG:  Solving for p, Initial residual = 0.00172838, Final residual = 5.42167e-07, No Iterations 9
time step continuity errors : sum local = 7.83261e-10, global = -3.08202e-20, cumulative = -1.56185e-18
smoothSolver:  Solving for epsilon, Initial residual = 0.00314311, Final residual = 1.78555e-06, No Iterations 4
smoothSolver:  Solving for k, Initial residual = 0.0111491, Final residual = 3.20207e-06, No Iterations 5
ExecutionTime = 0.328539 s  ClockTime = 1 s

Courant Number mean: 0.0719711 max: 0.671111
Time = 0.38s

smoothSolver:  Solving for Ux, Initial residual = 0.00523211, Final residual = 9.08859e-06, No Iterations 4
smoothSolver:  Solving for Uy, Initial residual = 0.008123, Final residual = 2.30149e-06, No Iterations 5
GAMG:  Solving for p, Initial residual = 0.0105779, Final residual = 0.000492715, No Iterations 3
time step continuity errors : sum local = 6.70799e-07, global = 1.82725e-19
GAMG:  Solving for p, Initial residual = 0.00169993, Final residual = 5.31611e-07, No Iterations 9
time step continuity errors : sum local = 7.71638e-10, global = 3.32069e-19, cumulative = -1.22978e-18
smoothSolver:  Solving for epsilon, Initial residual = 0.00309371, Final residual = 1.78098e-06, No Iterations 4
smoothSolver:  Solving for k, Initial residual = 0.0109727, Final residual = 3.11211e-06, No Iterations 5
ExecutionTime = 0.331391 s  ClockTime = 1 s

Courant Number mean: 0.0726057 max: 0.672812
Time = 0.385s

smoothSolver:  Solving for Ux, Initial residual = 0.00519318, Final residual = 8.96204e-06, No Iterations 4
smoothSolver:  Solving for Uy, Initial residual = 0.0080395, Final residual = 2.27526e-06, No Iterations 5
GAMG:  Solving for p, Initial residual = 0.010492, Final residual = 0.000490755, No Iterations 3
time step continuity errors : sum local = 6.70988e-07, global = -1.79043e-19
GAMG:  Solving for p, Initial residual = 0.00170307, Final residual = 5.24168e-07, No Iterations 9
time step continuity errors : sum local = 7.63737e-10, global = 3.04422e-19, cumulative = -9.25363e-19
smoothSolver:  Solving for epsilon, Initial residual = 0.00304539, Final residual = 1.76465e-06, No Iterations 4
smoothSolver:  Solving for k, Initial residual = 0.0108007, Final residual = 3.0294e-06, No Iterations 5
ExecutionTime = 0.334073 s  ClockTime = 1 s

Courant Number mean: 0.0732403 max: 0.674445
Time = 0.39s

smoothSolver:  Solving for Ux, Initial residual = 0.00515847, Final residual = 8.84629e-06, No Iterations 4
smoothSolver:  Solving for Uy, Initial residual = 0.00795582, Final residual = 2.25038e-06, No Iterations 5
GAMG:  Solving for p, Initial residual = 0.0104954, Final residual = 0.000489542, No Iterations 3
time step continuity errors : sum local = 6.71683e-07, global = -1.84544e-19
GAMG:  Solving for p, Initial residual = 0.00169076, Final residual = 5.15123e-07, No Iterations 9
time step continuity errors : sum local = 7.52841e-10, global = 2.09225e-20, cumulative = -9.0444e-19
smoothSolver:  Solving for epsilon, Initial residual = 0.00299923, Final residual = 1.75518e-06, No Iterations 4
smoothSolver:  Solving for k, Initial residual = 0.0106298, Final residual = 2.96125e-06, No Iterations 5
ExecutionTime = 0.336795 s  ClockTime = 1 s

Courant Number mean: 0.0738705 max: 0.676011
Time = 0.395s

smoothSolver:  Solving for Ux, Initial residual = 0.0051289, Final residual = 8.73302e-06, No Iterations 4
smoothSolver:  Solving for Uy, Initial residual = 0.00787706, Final residual = 2.2244e-06, No Iterations 5
GAMG:  Solving for p, Initial residual = 0.0109283, Final residual = 0.000492404, No Iterations 3
time step continuity errors : sum local = 6.77836e-07, global = -2.31611e-20
GAMG:  Solving for p, Initial residual = 0.00169426, Final residual = 5.18397e-07, No Iterations 9
time step continuity errors : sum local = 7.60002e-10, global = 3.20194e-19, cumulative = -5.84246e-19
smoothSolver:  Solving for epsilon, Initial residual = 0.00295873, Final residual = 1.72857e-06, No Iterations 4
smoothSolver:  Solving for k, Initial residual = 0.0104611, Final residual = 2.8797e-06, No Iterations 5
ExecutionTime = 0.339666 s  ClockTime = 1 s

Courant Number mean: 0.0744971 max: 0.677515
Time = 0.4s

smoothSolver:  Solving for Ux, Initial residual = 0.00511129, Final residual = 8.61581e-06, No Iterations 4
smoothSolver:  Solving for Uy, Initial residual = 0.00780049, Final residual = 2.18717e-06, No Iterations 5
GAMG:  Solving for p, Initial residual = 0.0107219, Final residual = 0.00048221, No Iterations 3
time step continuity errors : sum local = 6.66738e-07, global = -1.4881e-19
GAMG:  Solving for p, Initial residual = 0.00164993, Final residual = 4.90199e-07, No Iterations 9
time step continuity errors : sum local = 7.22134e-10, global = -7.26032e-20, cumulative = -6.5685e-19
smoothSolver:  Solving for epsilon, Initial residual = 0.00292373, Final residual = 1.70341e-06, No Iterations 4
smoothSolver:  Solving for k, Initial residual = 0.0103004, Final residual = 2.81065e-06, No Iterations 5
ExecutionTime = 0.342421 s  ClockTime = 1 s

Courant Number mean: 0.0751253 max: 0.678959
Time = 0.405s

smoothSolver:  Solving for Ux, Initial residual = 0.0050964, Final residual = 8.50942e-06, No Iterations 4
smoothSolver:  Solving for Uy, Initial residual = 0.00771944, Final residual = 2.15929e-06, No Iterations 5
GAMG:  Solving for p, Initial residual = 0.0118752, Final residual = 0.0011299, No Iterations 2
time step continuity errors : sum local = 1.56149e-06, global = -5.9557e-20
GAMG:  Solving for p, Initial residual = 0.00169442, Final residual = 5.18098e-07, No Iterations 9
time step continuity errors : sum local = 7.64293e-10, global = 2.99967e-19, cumulative = -3.56883e-19
smoothSolver:  Solving for epsilon, Initial residual = 0.00289026, Final residual = 1.68487e-06, No Iterations 4
smoothSolver:  Solving for k, Initial residual = 0.0101491, Final residual = 2.76555e-06, No Iterations 5
ExecutionTime = 0.345127 s  ClockTime = 1 s

Courant Number mean: 0.075754 max: 0.680337
Time = 0.41s

smoothSolver:  Solving for Ux, Initial residual = 0.00506696, Final residual = 8.38289e-06, No Iterations 4
smoothSolver:  Solving for Uy, Initial residual = 0.00763829, Final residual = 2.12852e-06, No Iterations 5
GAMG:  Solving for p, Initial residual = 0.0110661, Final residual = 0.000479837, No Iterations 3
time step continuity errors : sum local = 6.68398e-07, global = 3.2897e-19
GAMG:  Solving for p, Initial residual = 0.00170802, Final residual = 9.71841e-07, No Iterations 8
time step continuity errors : sum local = 1.43826e-09, global = -8.89995e-21, cumulative = -3.65783e-19
smoothSolver:  Solving for epsilon, Initial residual = 0.00285689, Final residual = 1.68073e-06, No Iterations 4
smoothSolver:  Solving for k, Initial residual = 0.00999377, Final residual = 2.71741e-06, No Iterations 5
ExecutionTime = 0.348079 s  ClockTime = 1 s

Courant Number mean: 0.0763798 max: 0.681649
Time = 0.415s

smoothSolver:  Solving for Ux, Initial residual = 0.00504257, Final residual = 8.2759e-06, No Iterations 4
smoothSolver:  Solving for Uy, Initial residual = 0.00756761, Final residual = 2.09926e-06, No Iterations 5
GAMG:  Solving for p, Initial residual = 0.0104561, Final residual = 0.000485171, No Iterations 3
time step continuity errors : sum local = 6.78659e-07, global = 1.11876e-19
GAMG:  Solving for p, Initial residual = 0.00162109, Final residual = 9.44825e-07, No Iterations 8
time step continuity errors : sum local = 1.40393e-09, global = -1.11292e-19, cumulative = -4.77075e-19
smoothSolver:  Solving for epsilon, Initial residual = 0.00282387, Final residual = 9.98548e-06, No Iterations 3
smoothSolver:  Solving for k, Initial residual = 0.00984211, Final residual = 2.68361e-06, No Iterations 5
ExecutionTime = 0.351001 s  ClockTime = 1 s

Courant Number mean: 0.0770054 max: 0.682909
Time = 0.42s

smoothSolver:  Solving for Ux, Initial residual = 0.00502639, Final residual = 8.16961e-06, No Iterations 4
smoothSolver:  Solving for Uy, Initial residual = 0.00748495, Final residual = 9.9315e-06, No Iterations 4
GAMG:  Solving for p, Initial residual = 0.0103152, Final residual = 0.000482222, No Iterations 3
time step continuity errors : sum local = 6.76903e-07, global = -1.0621e-19
GAMG:  Solving for p, Initial residual = 0.00161995, Final residual = 9.19545e-07, No Iterations 8
time step continuity errors : sum local = 1.37064e-09, global = -1.29268e-19, cumulative = -6.06343e-19
smoothSolver:  Solving for epsilon, Initial residual = 0.00279404, Final residual = 9.88732e-06, No Iterations 3
smoothSolver:  Solving for k, Initial residual = 0.00970606, Final residual = 2.62192e-06, No Iterations 5
ExecutionTime = 0.353719 s  ClockTime = 1 s

Courant Number mean: 0.0776274 max: 0.684107
Time = 0.425s

smoothSolver:  Solving for Ux, Initial residual = 0.00502764, Final residual = 8.09305e-06, No Iterations 4
smoothSolver:  Solving for Uy, Initial residual = 0.00740277, Final residual = 9.85931e-06, No Iterations 4
GAMG:  Solving for p, Initial residual = 0.0105404, Final residual = 0.000475963, No Iterations 3
time step continuity errors : sum local = 6.70828e-07, global = 3.23676e-19
GAMG:  Solving for p, Initial residual = 0.0016278, Final residual = 9.06804e-07, No Iterations 8
time step continuity errors : sum local = 1.35821e-09, global = -1.47145e-19, cumulative = -7.53488e-19
smoothSolver:  Solving for epsilon, Initial residual = 0.00277073, Final residual = 9.8877e-06, No Iterations 3
smoothSolver:  Solving for k, Initial residual = 0.00957571, Final residual = 2.59712e-06, No Iterations 5
ExecutionTime = 0.356567 s  ClockTime = 1 s

Courant Number mean: 0.0782438 max: 0.685249
Time = 0.43s

smoothSolver:  Solving for Ux, Initial residual = 0.00499139, Final residual = 7.97638e-06, No Iterations 4
smoothSolver:  Solving for Uy, Initial residual = 0.00732756, Final residual = 9.72863e-06, No Iterations 4
GAMG:  Solving for p, Initial residual = 0.00979886, Final residual = 0.000471412, No Iterations 3
time step continuity errors : sum local = 6.67346e-07, global = -1.7681e-19
GAMG:  Solving for p, Initial residual = 0.00156238, Final residual = 8.54907e-07, No Iterations 8
time step continuity errors : sum local = 1.28426e-09, global = 5.27444e-20, cumulative = -7.00743e-19
smoothSolver:  Solving for epsilon, Initial residual = 0.00274609, Final residual = 9.71217e-06, No Iterations 3
smoothSolver:  Solving for k, Initial residual = 0.00945444, Final residual = 2.5761e-06, No Iterations 5
ExecutionTime = 0.359774 s  ClockTime = 1 s

Courant Number mean: 0.0788595 max: 0.686346
Time = 0.435s

smoothSolver:  Solving for Ux, Initial residual = 0.0049764, Final residual = 7.89085e-06, No Iterations 4
[...]
GAMG:  Solving for p, Initial residual = 0.00391861, Final residual = 8.82613e-05, No Iterations 2
time step continuity errors : sum local = 2.76446e-07, global = -8.62129e-19
GAMG:  Solving for p, Initial residual = 0.00047217, Final residual = 3.92866e-07, No Iterations 4
time step continuity errors : sum local = 1.2574e-09, global = 1.63906e-19, cumulative = -1.48417e-17
smoothSolver:  Solving for epsilon, Initial residual = 5.91576e-05, Final residual = 8.41391e-06, No Iterations 1
smoothSolver:  Solving for k, Initial residual = 0.000100605, Final residual = 2.92732e-06, No Iterations 2
ExecutionTime = 4.74033 s  ClockTime = 5 s

Courant Number mean: 0.338489 max: 0.828476
Time = 9.9s

smoothSolver:  Solving for Ux, Initial residual = 7.74937e-05, Final residual = 3.40061e-06, No Iterations 2
smoothSolver:  Solving for Uy, Initial residual = 3.95221e-05, Final residual = 6.36786e-06, No Iterations 1
GAMG:  Solving for p, Initial residual = 0.00398565, Final residual = 8.64917e-05, No Iterations 2
time step continuity errors : sum local = 2.71843e-07, global = 2.66766e-20
GAMG:  Solving for p, Initial residual = 0.000491684, Final residual = 5.30569e-07, No Iterations 4
time step continuity errors : sum local = 1.69567e-09, global = 1.13957e-18, cumulative = -1.37021e-17
smoothSolver:  Solving for epsilon, Initial residual = 5.92427e-05, Final residual = 8.39514e-06, No Iterations 1
smoothSolver:  Solving for k, Initial residual = 0.00010041, Final residual = 2.96202e-06, No Iterations 2
ExecutionTime = 4.74247 s  ClockTime = 5 s

Courant Number mean: 0.338508 max: 0.828559
Time = 9.905s

smoothSolver:  Solving for Ux, Initial residual = 7.95368e-05, Final residual = 2.73376e-06, No Iterations 2
smoothSolver:  Solving for Uy, Initial residual = 4.01293e-05, Final residual = 6.38461e-06, No Iterations 1
GAMG:  Solving for p, Initial residual = 0.00391764, Final residual = 8.82024e-05, No Iterations 2
time step continuity errors : sum local = 2.7628e-07, global = 2.71936e-19
GAMG:  Solving for p, Initial residual = 0.000472058, Final residual = 3.92349e-07, No Iterations 4
time step continuity errors : sum local = 1.25594e-09, global = -3.10482e-19, cumulative = -1.40126e-17
smoothSolver:  Solving for epsilon, Initial residual = 5.91169e-05, Final residual = 8.41021e-06, No Iterations 1
smoothSolver:  Solving for k, Initial residual = 0.000100529, Final residual = 2.9228e-06, No Iterations 2
ExecutionTime = 4.74468 s  ClockTime = 5 s

Courant Number mean: 0.338525 max: 0.828477
Time = 9.91s

smoothSolver:  Solving for Ux, Initial residual = 7.738e-05, Final residual = 3.39784e-06, No Iterations 2
smoothSolver:  Solving for Uy, Initial residual = 3.94249e-05, Final residual = 6.35354e-06, No Iterations 1
GAMG:  Solving for p, Initial residual = 0.00398472, Final residual = 8.64424e-05, No Iterations 2
time step continuity errors : sum local = 2.71706e-07, global = -4.71286e-19
GAMG:  Solving for p, Initial residual = 0.000491594, Final residual = 5.30556e-07, No Iterations 4
time step continuity errors : sum local = 1.69583e-09, global = -3.47044e-19, cumulative = -1.43597e-17
smoothSolver:  Solving for epsilon, Initial residual = 5.91992e-05, Final residual = 8.39062e-06, No Iterations 1
smoothSolver:  Solving for k, Initial residual = 0.000100334, Final residual = 2.95706e-06, No Iterations 2
ExecutionTime = 4.74682 s  ClockTime = 5 s

Courant Number mean: 0.338545 max: 0.82856
Time = 9.915s

smoothSolver:  Solving for Ux, Initial residual = 7.94395e-05, Final residual = 2.73172e-06, No Iterations 2
smoothSolver:  Solving for Uy, Initial residual = 4.00304e-05, Final residual = 6.3703e-06, No Iterations 1
GAMG:  Solving for p, Initial residual = 0.00391667, Final residual = 8.81433e-05, No Iterations 2
time step continuity errors : sum local = 2.76113e-07, global = 2.35292e-19
GAMG:  Solving for p, Initial residual = 0.000471947, Final residual = 3.91825e-07, No Iterations 4
time step continuity errors : sum local = 1.25446e-09, global = 1.13696e-19, cumulative = -1.4246e-17
smoothSolver:  Solving for epsilon, Initial residual = 5.90714e-05, Final residual = 8.40567e-06, No Iterations 1
smoothSolver:  Solving for k, Initial residual = 0.000100447, Final residual = 2.91787e-06, No Iterations 2
ExecutionTime = 4.749 s  ClockTime = 5 s

Courant Number mean: 0.338562 max: 0.828478
Time = 9.92s

smoothSolver:  Solving for Ux, Initial residual = 7.7267e-05, Final residual = 3.39515e-06, No Iterations 2
smoothSolver:  Solving for Uy, Initial residual = 3.93266e-05, Final residual = 6.33924e-06, No Iterations 1
GAMG:  Solving for p, Initial residual = 0.00398379, Final residual = 8.63927e-05, No Iterations 2
time step continuity errors : sum local = 2.71567e-07, global = 1.12703e-19
GAMG:  Solving for p, Initial residual = 0.000491503, Final residual = 5.30556e-07, No Iterations 4
time step continuity errors : sum local = 1.69604e-09, global = 1.50671e-19, cumulative = -1.40953e-17
smoothSolver:  Solving for epsilon, Initial residual = 5.91509e-05, Final residual = 8.38523e-06, No Iterations 1
smoothSolver:  Solving for k, Initial residual = 0.000100251, Final residual = 2.95169e-06, No Iterations 2
ExecutionTime = 4.75119 s  ClockTime = 5 s

Courant Number mean: 0.338581 max: 0.828561
Time = 9.925s

smoothSolver:  Solving for Ux, Initial residual = 7.9342e-05, Final residual = 2.72974e-06, No Iterations 2
smoothSolver:  Solving for Uy, Initial residual = 3.99307e-05, Final residual = 6.35611e-06, No Iterations 1
GAMG:  Solving for p, Initial residual = 0.0039157, Final residual = 8.80841e-05, No Iterations 2
time step continuity errors : sum local = 2.75946e-07, global = -5.78613e-20
GAMG:  Solving for p, Initial residual = 0.000471835, Final residual = 3.91293e-07, No Iterations 4
time step continuity errors : sum local = 1.25294e-09, global = -3.7889e-19, cumulative = -1.44742e-17
smoothSolver:  Solving for epsilon, Initial residual = 5.90211e-05, Final residual = 8.40036e-06, No Iterations 1
smoothSolver:  Solving for k, Initial residual = 0.000100357, Final residual = 2.91253e-06, No Iterations 2
ExecutionTime = 4.7534 s  ClockTime = 5 s

Courant Number mean: 0.338599 max: 0.828479
Time = 9.93s

smoothSolver:  Solving for Ux, Initial residual = 7.7155e-05, Final residual = 3.39253e-06, No Iterations 2
smoothSolver:  Solving for Uy, Initial residual = 3.92275e-05, Final residual = 6.32498e-06, No Iterations 1
GAMG:  Solving for p, Initial residual = 0.00398286, Final residual = 8.63425e-05, No Iterations 2
time step continuity errors : sum local = 2.71427e-07, global = 1.29247e-19
GAMG:  Solving for p, Initial residual = 0.000491412, Final residual = 5.3057e-07, No Iterations 4
time step continuity errors : sum local = 1.69629e-09, global = 3.85094e-19, cumulative = -1.40891e-17
smoothSolver:  Solving for epsilon, Initial residual = 5.90976e-05, Final residual = 8.3792e-06, No Iterations 1
smoothSolver:  Solving for k, Initial residual = 0.00010016, Final residual = 2.94598e-06, No Iterations 2
ExecutionTime = 4.75558 s  ClockTime = 5 s

Courant Number mean: 0.338618 max: 0.828562
Time = 9.935s

smoothSolver:  Solving for Ux, Initial residual = 7.92448e-05, Final residual = 2.7278e-06, No Iterations 2
smoothSolver:  Solving for Uy, Initial residual = 3.98303e-05, Final residual = 6.34204e-06, No Iterations 1
GAMG:  Solving for p, Initial residual = 0.00391472, Final residual = 8.80249e-05, No Iterations 2
time step continuity errors : sum local = 2.75779e-07, global = -1.29743e-19
GAMG:  Solving for p, Initial residual = 0.000471724, Final residual = 3.90753e-07, No Iterations 4
time step continuity errors : sum local = 1.2514e-09, global = -5.8097e-19, cumulative = -1.46701e-17
smoothSolver:  Solving for epsilon, Initial residual = 5.89661e-05, Final residual = 8.3942e-06, No Iterations 1
smoothSolver:  Solving for k, Initial residual = 0.000100261, Final residual = 2.90683e-06, No Iterations 2
ExecutionTime = 4.75782 s  ClockTime = 5 s

Courant Number mean: 0.338635 max: 0.82848
Time = 9.94s

smoothSolver:  Solving for Ux, Initial residual = 7.70444e-05, Final residual = 3.38997e-06, No Iterations 2
smoothSolver:  Solving for Uy, Initial residual = 3.91277e-05, Final residual = 6.31076e-06, No Iterations 1
GAMG:  Solving for p, Initial residual = 0.00398193, Final residual = 8.62916e-05, No Iterations 2
time step continuity errors : sum local = 2.71284e-07, global = -1.70358e-19
GAMG:  Solving for p, Initial residual = 0.000491321, Final residual = 5.30594e-07, No Iterations 4
time step continuity errors : sum local = 1.69656e-09, global = 1.32225e-19, cumulative = -1.45378e-17
smoothSolver:  Solving for epsilon, Initial residual = 5.90397e-05, Final residual = 8.37243e-06, No Iterations 1
smoothSolver:  Solving for k, Initial residual = 0.000100061, Final residual = 2.93992e-06, No Iterations 2
ExecutionTime = 4.76001 s  ClockTime = 5 s

Courant Number mean: 0.338654 max: 0.828564
Time = 9.945s

smoothSolver:  Solving for Ux, Initial residual = 7.91473e-05, Final residual = 2.72592e-06, No Iterations 2
smoothSolver:  Solving for Uy, Initial residual = 3.97291e-05, Final residual = 6.32807e-06, No Iterations 1
GAMG:  Solving for p, Initial residual = 0.00391374, Final residual = 8.79658e-05, No Iterations 2
time step continuity errors : sum local = 2.75611e-07, global = 5.02512e-20
GAMG:  Solving for p, Initial residual = 0.000471613, Final residual = 3.90205e-07, No Iterations 4
time step continuity errors : sum local = 1.24983e-09, global = 4.13466e-19, cumulative = -1.41244e-17
smoothSolver:  Solving for epsilon, Initial residual = 5.89066e-05, Final residual = 8.38721e-06, No Iterations 1
smoothSolver:  Solving for k, Initial residual = 0.000100156, Final residual = 2.90079e-06, No Iterations 2
ExecutionTime = 4.76216 s  ClockTime = 5 s

Courant Number mean: 0.338671 max: 0.828481
Time = 9.95s

smoothSolver:  Solving for Ux, Initial residual = 7.69364e-05, Final residual = 3.38747e-06, No Iterations 2
smoothSolver:  Solving for Uy, Initial residual = 3.90265e-05, Final residual = 6.29658e-06, No Iterations 1
GAMG:  Solving for p, Initial residual = 0.003981, Final residual = 8.62401e-05, No Iterations 2
time step continuity errors : sum local = 2.7114e-07, global = 1.86074e-19
GAMG:  Solving for p, Initial residual = 0.000491231, Final residual = 5.30628e-07, No Iterations 4
time step continuity errors : sum local = 1.69686e-09, global = -2.17011e-19, cumulative = -1.43414e-17
smoothSolver:  Solving for epsilon, Initial residual = 5.89772e-05, Final residual = 8.36484e-06, No Iterations 1
smoothSolver:  Solving for k, Initial residual = 9.9954e-05, Final residual = 2.93352e-06, No Iterations 2
ExecutionTime = 4.76441 s  ClockTime = 5 s

Courant Number mean: 0.33869 max: 0.828565
Time = 9.955s

smoothSolver:  Solving for Ux, Initial residual = 7.90497e-05, Final residual = 2.7241e-06, No Iterations 2
smoothSolver:  Solving for Uy, Initial residual = 3.96275e-05, Final residual = 6.3142e-06, No Iterations 1
GAMG:  Solving for p, Initial residual = 0.00391276, Final residual = 8.79068e-05, No Iterations 2
time step continuity errors : sum local = 2.75444e-07, global = 3.76326e-19
GAMG:  Solving for p, Initial residual = 0.000471502, Final residual = 3.89649e-07, No Iterations 4
time step continuity errors : sum local = 1.24823e-09, global = 2.88231e-19, cumulative = -1.40531e-17
smoothSolver:  Solving for epsilon, Initial residual = 5.88427e-05, Final residual = 8.37943e-06, No Iterations 1
smoothSolver:  Solving for k, Initial residual = 0.000100043, Final residual = 2.89438e-06, No Iterations 2
ExecutionTime = 4.76656 s  ClockTime = 5 s

Courant Number mean: 0.338708 max: 0.828482
Time = 9.96s

smoothSolver:  Solving for Ux, Initial residual = 7.68337e-05, Final residual = 3.38503e-06, No Iterations 2
smoothSolver:  Solving for Uy, Initial residual = 3.89242e-05, Final residual = 6.28245e-06, No Iterations 1
GAMG:  Solving for p, Initial residual = 0.00398007, Final residual = 8.61882e-05, No Iterations 2
time step continuity errors : sum local = 2.70994e-07, global = 1.8078e-19
GAMG:  Solving for p, Initial residual = 0.00049114, Final residual = 5.30669e-07, No Iterations 4
time step continuity errors : sum local = 1.69718e-09, global = 2.0146e-19, cumulative = -1.38517e-17
smoothSolver:  Solving for epsilon, Initial residual = 5.89102e-05, Final residual = 8.35648e-06, No Iterations 1
smoothSolver:  Solving for k, Initial residual = 9.98386e-05, Final residual = 2.92678e-06, No Iterations 2
ExecutionTime = 4.76878 s  ClockTime = 5 s

Courant Number mean: 0.338726 max: 0.828566
Time = 9.965s

smoothSolver:  Solving for Ux, Initial residual = 7.89521e-05, Final residual = 2.72234e-06, No Iterations 2
smoothSolver:  Solving for Uy, Initial residual = 3.95254e-05, Final residual = 6.30044e-06, No Iterations 1
GAMG:  Solving for p, Initial residual = 0.00391177, Final residual = 8.7848e-05, No Iterations 2
time step continuity errors : sum local = 2.75278e-07, global = -5.49786e-19
GAMG:  Solving for p, Initial residual = 0.000471392, Final residual = 3.89085e-07, No Iterations 4
time step continuity errors : sum local = 1.2466e-09, global = -1.40662e-19, cumulative = -1.39923e-17
smoothSolver:  Solving for epsilon, Initial residual = 5.87744e-05, Final residual = 8.3709e-06, No Iterations 1
smoothSolver:  Solving for k, Initial residual = 9.99229e-05, Final residual = 2.88763e-06, No Iterations 2
ExecutionTime = 4.77096 s  ClockTime = 5 s

Courant Number mean: 0.338744 max: 0.828483
Time = 9.97s

smoothSolver:  Solving for Ux, Initial residual = 7.67339e-05, Final residual = 3.38266e-06, No Iterations 2
smoothSolver:  Solving for Uy, Initial residual = 3.88207e-05, Final residual = 6.26837e-06, No Iterations 1
GAMG:  Solving for p, Initial residual = 0.00397915, Final residual = 8.6136e-05, No Iterations 2
time step continuity errors : sum local = 2.70847e-07, global = 3.5941e-19
GAMG:  Solving for p, Initial residual = 0.00049105, Final residual = 5.30714e-07, No Iterations 4
time step continuity errors : sum local = 1.6975e-09, global = 3.65242e-19, cumulative = -1.36271e-17
smoothSolver:  Solving for epsilon, Initial residual = 5.88388e-05, Final residual = 8.34737e-06, No Iterations 1
smoothSolver:  Solving for k, Initial residual = 9.97171e-05, Final residual = 2.91973e-06, No Iterations 2
ExecutionTime = 4.77318 s  ClockTime = 5 s

Courant Number mean: 0.338762 max: 0.828567
Time = 9.975s

smoothSolver:  Solving for Ux, Initial residual = 7.88546e-05, Final residual = 2.72063e-06, No Iterations 2
smoothSolver:  Solving for Uy, Initial residual = 3.94227e-05, Final residual = 6.28679e-06, No Iterations 1
GAMG:  Solving for p, Initial residual = 0.00391078, Final residual = 8.77897e-05, No Iterations 2
time step continuity errors : sum local = 2.75113e-07, global = 6.47227e-19
GAMG:  Solving for p, Initial residual = 0.000471283, Final residual = 3.88511e-07, No Iterations 4
time step continuity errors : sum local = 1.24494e-09, global = -2.97785e-20, cumulative = -1.36569e-17
smoothSolver:  Solving for epsilon, Initial residual = 5.87021e-05, Final residual = 8.36165e-06, No Iterations 1
smoothSolver:  Solving for k, Initial residual = 9.97975e-05, Final residual = 2.88062e-06, No Iterations 2
ExecutionTime = 4.77533 s  ClockTime = 5 s

Courant Number mean: 0.33878 max: 0.828485
Time = 9.98s

smoothSolver:  Solving for Ux, Initial residual = 7.6634e-05, Final residual = 3.38036e-06, No Iterations 2
smoothSolver:  Solving for Uy, Initial residual = 3.87161e-05, Final residual = 6.2543e-06, No Iterations 1
GAMG:  Solving for p, Initial residual = 0.00397823, Final residual = 8.60834e-05, No Iterations 2
time step continuity errors : sum local = 2.70698e-07, global = -4.53709e-19
GAMG:  Solving for p, Initial residual = 0.00049096, Final residual = 5.30764e-07, No Iterations 4
time step continuity errors : sum local = 1.69784e-09, global = -7.72752e-19, cumulative = -1.44296e-17
smoothSolver:  Solving for epsilon, Initial residual = 5.87635e-05, Final residual = 8.33754e-06, No Iterations 1
smoothSolver:  Solving for k, Initial residual = 9.95896e-05, Final residual = 2.91236e-06, No Iterations 2
ExecutionTime = 4.77751 s  ClockTime = 5 s

Courant Number mean: 0.338798 max: 0.828569
Time = 9.985s

smoothSolver:  Solving for Ux, Initial residual = 7.87572e-05, Final residual = 2.71898e-06, No Iterations 2
smoothSolver:  Solving for Uy, Initial residual = 3.93197e-05, Final residual = 6.27326e-06, No Iterations 1
GAMG:  Solving for p, Initial residual = 0.0039098, Final residual = 8.7732e-05, No Iterations 2
time step continuity errors : sum local = 2.74949e-07, global = 5.71292e-19
GAMG:  Solving for p, Initial residual = 0.000471175, Final residual = 3.8793e-07, No Iterations 4
time step continuity errors : sum local = 1.24325e-09, global = 6.45614e-20, cumulative = -1.43651e-17
smoothSolver:  Solving for epsilon, Initial residual = 5.86256e-05, Final residual = 8.35171e-06, No Iterations 1
smoothSolver:  Solving for k, Initial residual = 9.96663e-05, Final residual = 2.87347e-06, No Iterations 2
ExecutionTime = 4.77969 s  ClockTime = 5 s

Courant Number mean: 0.338815 max: 0.828486
Time = 9.99s

smoothSolver:  Solving for Ux, Initial residual = 7.65341e-05, Final residual = 3.37813e-06, No Iterations 2
smoothSolver:  Solving for Uy, Initial residual = 3.86104e-05, Final residual = 6.24029e-06, No Iterations 1
GAMG:  Solving for p, Initial residual = 0.00397711, Final residual = 8.60217e-05, No Iterations 2
time step continuity errors : sum local = 2.70521e-07, global = 5.73691e-19
GAMG:  Solving for p, Initial residual = 0.000490856, Final residual = 5.30622e-07, No Iterations 4
time step continuity errors : sum local = 1.69751e-09, global = 9.62838e-20, cumulative = -1.42688e-17
smoothSolver:  Solving for epsilon, Initial residual = 5.86854e-05, Final residual = 8.32703e-06, No Iterations 1
smoothSolver:  Solving for k, Initial residual = 9.94565e-05, Final residual = 2.90468e-06, No Iterations 2
ExecutionTime = 4.78188 s  ClockTime = 5 s

Courant Number mean: 0.338834 max: 0.82857
Time = 9.995s

smoothSolver:  Solving for Ux, Initial residual = 7.86599e-05, Final residual = 2.71738e-06, No Iterations 2
smoothSolver:  Solving for Uy, Initial residual = 3.92167e-05, Final residual = 6.25999e-06, No Iterations 1
GAMG:  Solving for p, Initial residual = 0.00390906, Final residual = 8.76107e-05, No Iterations 2
time step continuity errors : sum local = 2.74586e-07, global = -9.07002e-20
GAMG:  Solving for p, Initial residual = 0.000471071, Final residual = 3.86657e-07, No Iterations 4
time step continuity errors : sum local = 1.23919e-09, global = -1.48727e-19, cumulative = -1.44175e-17
smoothSolver:  Solving for epsilon, Initial residual = 5.85452e-05, Final residual = 8.34111e-06, No Iterations 1
smoothSolver:  Solving for k, Initial residual = 9.953e-05, Final residual = 2.86601e-06, No Iterations 2
ExecutionTime = 4.78402 s  ClockTime = 5 s

Courant Number mean: 0.338851 max: 0.828487
Time = 10s

smoothSolver:  Solving for Ux, Initial residual = 7.64337e-05, Final residual = 3.37594e-06, No Iterations 2
smoothSolver:  Solving for Uy, Initial residual = 3.85063e-05, Final residual = 6.2271e-06, No Iterations 1
GAMG:  Solving for p, Initial residual = 0.00397609, Final residual = 8.59622e-05, No Iterations 2
time step continuity errors : sum local = 2.7035e-07, global = 3.52999e-19
GAMG:  Solving for p, Initial residual = 0.00049076, Final residual = 5.3059e-07, No Iterations 4
time step continuity errors : sum local = 1.69755e-09, global = 2.7421e-20, cumulative = -1.43901e-17
smoothSolver:  Solving for epsilon, Initial residual = 5.86732e-05, Final residual = 8.32577e-06, No Iterations 1
smoothSolver:  Solving for k, Initial residual = 9.93193e-05, Final residual = 2.90712e-06, No Iterations 2
ExecutionTime = 4.78951 s  ClockTime = 5 s

End

